/*--------------------------------*- C++ -*----------------------------------*\
|       ______          _   __           ______                               |
|      / ____/  ___    / | / /          / ____/  ____   ____ _   ____ ___     |
|     / / __   / _ \  /  |/ /  ______  / /_     / __ \ / __ `/  / __ `__ \    |
|    / /_/ /  /  __/ / /|  /  /_____/ / __/    / /_/ // /_/ /  / / / / / /    |
|    \____/   \___/ /_/ |_/          /_/       \____/ \__,_/  /_/ /_/ /_/     |
|    Copyright (C) 2015 - 2022 EPFL                                           |
\*---------------------------------------------------------------------------*/
FoamFile
{
    version     2.0;
    format      ascii;
    class       dictionary;
    object      controlDict;
}
// * * * * * * * * * * * * * * * * * * * * * * * * * * * * * * * * * * * * * //

blowIn {
    field T;
    expressions
    (
        {
            target value;
            patchName bottom;
            //expression "(pos().x>0 && pos().y>0) ? (1100-100*pos().x-100*pos().y) : 650";
	    expression "818-10*mag(pos().x-0.25)-10*mag(pos().y-0.1)";
	    //expression "670";
        }
    );
} 
/*
blowIn {
    field U;
    expressions
    (
        {
            target inletValue;
            patchName bottom;
            //expression "(pos().x>0 && pos().y>0) ? vector(0,0,0.15) : vector(0,0,0.15)";
	    expression "vector(0,0,1.63)";
        }
    );
}
*/

