/*--------------------------------*- C++ -*----------------------------------*\
|       ______          _   __           ______                               |
|      / ____/  ___    / | / /          / ____/  ____   ____ _   ____ ___     |
|     / / __   / _ \  /  |/ /  ______  / /_     / __ \ / __ `/  / __ `__ \    |
|    / /_/ /  /  __/ / /|  /  /_____/ / __/    / /_/ // /_/ /  / / / / / /    |
|    \____/   \___/ /_/ |_/          /_/       \____/ \__,_/  /_/ /_/ /_/     |
|    Copyright (C) 2015 - 2022 EPFL                                           |
\*---------------------------------------------------------------------------*/
FoamFile
{
    version     2.0;
    format      ascii;
    class       dictionary;
    object      controlDict;
}
// * * * * * * * * * * * * * * * * * * * * * * * * * * * * * * * * * * * * * //

application             GeN-Foam;

startFrom               startTime;

startTime               0;

stopAt                  endTime;

endTime                 1;

deltaT                  1;

writeControl            timeStep;

writeInterval           1;

purgeWrite              0;

writeFormat             ascii;

writePrecision          6;

writeCompression        off;

timeFormat              general;

timePrecision           6;

runTimeModifiable       true;

//- Physics to Solve

solveFluidMechanics     false;

solveEnergy             false;

solveNeutronics         false;

solveThermalMechanics   false;

//- Global options

liquidFuel              false;

//- Time step control options

adjustTimeStep          false;

maxDeltaT               1;

maxCo                   1;

// ************************************************************************* //
