/*--------------------------------*- C++ -*----------------------------------*\
|       ______          _   __           ______                               |
|      / ____/  ___    / | / /          / ____/  ____   ____ _   ____ ___     |
|     / / __   / _ \  /  |/ /  ______  / /_     / __ \ / __ `/  / __ `__ \    |
|    / /_/ /  /  __/ / /|  /  /_____/ / __/    / /_/ // /_/ /  / / / / / /    |
|    \____/   \___/ /_/ |_/          /_/       \____/ \__,_/  /_/ /_/ /_/     |
|    Copyright (C) 2015 - 2022 EPFL                                           |
\*---------------------------------------------------------------------------*/
FoamFile
{
    version     2.0;
    format      ascii;
    class       dictionary;
    object      fvSolution;
}
solvers
{
    p_rgh
    {
        solver          GAMG;
        smoother        DIC;
        tolerance       1e-06;
        relTol          0;
    }
    p_rghFinal
    {
        solver          GAMG;
        smoother        DIC;
        tolerance       1e-06;
        relTol          0;
    }
    "e.*"
    {
        solver          smoothSolver;
        smoother        symGaussSeidel;
        tolerance       1e-06;
        relTol          0;
        minIter         1;
    }
    "h.*"
    {
        solver          smoothSolver;
        smoother        symGaussSeidel;
        tolerance       1e-06;
        relTol          0;
        minIter         1;
    }
    ".*"
    {
        solver          PBiCGStab;
        preconditioner  diagonal;
        tolerance       1e-06;
        relTol          0.001;
    }
    alpha
    {
        solver          "MULES";
        adjustSubCycles true;
        alphaMaxCo      0.25;
        solvePhase      "vapour";
    }
}

PIMPLE
{
    nCorrectors                         12;
    correctUntilConvergence             true;
    nNonOrthogonalCorrectors            0;
    partialEliminationMode              implicit;
    momentumMode                        faceCentered;
    massTransferSafetyFactor            0.90;
    enthalpyStabilizationMode           source;
    
    residualControl
    {
        p_rgh
        {
            tolerance                           1e-05;
            relTol                              1;
            useFirstPISOInitialResidual         true;
        }
        h.liquid
        {
            tolerance       1e-06;
            relTol          0;
        }
    }
}

relaxationFactors
{
    equations
    {
        ".*"                1;
        "h.vapour"          0.25;
        "h.vapourFinal"     0.25;
    }
    fields
    {
        "T.interface"               0.25;
        "T.interfaceFinal"          0.25;
        "dmdt.*"                    0.125;
    }
}

// ************************************************************************* //
