/*--------------------------------*- C++ -*----------------------------------*\
|       ______          _   __           ______                               |
|      / ____/  ___    / | / /          / ____/  ____   ____ _   ____ ___     |
|     / / __   / _ \  /  |/ /  ______  / /_     / __ \ / __ `/  / __ `__ \    |
|    / /_/ /  /  __/ / /|  /  /_____/ / __/    / /_/ // /_/ /  / / / / / /    |
|    \____/   \___/ /_/ |_/          /_/       \____/ \__,_/  /_/ /_/ /_/     |
|    Copyright (C) 2015 - 2022 EPFL                                           |
\*---------------------------------------------------------------------------*/
FoamFile
{
    version     2.0;
    format      ascii;
    class       volScalarField;
    object      alphat;
}
// * * * * * * * * * * * * * * * * * * * * * * * * * * * * * * * * * * * * * //

dimensions      [1 -1 -1 0 0 0 0];

internalField   uniform 0;

boundaryField
{
    topWall
    {
        type            calculated;
        value           uniform 0;
    }
    wedgeY+
    {
        type            wedge;
    }
    wedgeY-
    {
        type            wedge;
    }
    walls
    {
        type            compressible::alphatWallFunction;
        Prt             1.7;
        value           uniform 0;
    }
    baffle_master
    {
        type            compressible::alphatWallFunction;
        Prt             1.7;
        coupleGroup     baffle;
        value           uniform 0;
    }
    baffle_slave
    {
        type            compressible::alphatWallFunction;
        Prt             1.7;
        coupleGroup     baffle;
        value           uniform 0;
    }
}

// ************************************************************************* //
