/*--------------------------------*- C++ -*----------------------------------*\
|       ______          _   __           ______                               |
|      / ____/  ___    / | / /          / ____/  ____   ____ _   ____ ___     |
|     / / __   / _ \  /  |/ /  ______  / /_     / __ \ / __ `/  / __ `__ \    |
|    / /_/ /  /  __/ / /|  /  /_____/ / __/    / /_/ // /_/ /  / / / / / /    |
|    \____/   \___/ /_/ |_/          /_/       \____/ \__,_/  /_/ /_/ /_/     |
|    Copyright (C) 2015 - 2022 EPFL                                           |
\*---------------------------------------------------------------------------*/
FoamFile
{
    version     2.0;
    format      ascii;
    class       dictionary;
    object      fvSolution;
}
// * * * * * * * * * * * * * * * * * * * * * * * * * * * * * * * * * * * * * //

solvers
{
    rho
    {
        solver          PCG;
        preconditioner  DIC;
        tolerance       1e-7;
        relTol          0.1;
    }

    rhoFinal
    {
        $rho;
        tolerance       1e-7;
        relTol          0;
    }

    p_rgh
    {
        solver          PCG;
        preconditioner  DIC;
        tolerance        1e-6;
        relTol           0.01;
/*
        smoother         GaussSeidel;

        cacheAgglomeration  true;
        nCellsInCoarsestLevel 20;
        agglomerator     faceAreaPair;
        mergeLevels      1;
	processorAgglomerator masterCoarsest; 
*/
    }

    p_rghFinal
    {
        $p_rgh;
        tolerance        1e-7;
        relTol           0;
    }

    "(U|h|k|epsilon|R|Tstructures)"
    {
      
      
        solver           PBiCG;
        preconditioner   DILU;
        tolerance        1e-6;
        relTol           0.01;
    }

    "(U|h|k|epsilon|R|Tstructures)Final"
    {
        $U;
        tolerance        1e-7;
        relTol           0;
    }
}

PIMPLE
{
    momentumPredictor on;
    nCorrectors      5;
    nNonOrthogonalCorrectors 2;
    pRefCell        0;
    pRefValue       1e6;
}

relaxationFactors
{
    fields
    {
    }
    equations
    {
        "h.*"           0.6;
        "U.*"           0.6;
        "p_rgh.*"       0.3;
    }
}

// ************************************************************************* //
