/*--------------------------------*- C++ -*----------------------------------*\
|       ______          _   __           ______                               |
|      / ____/  ___    / | / /          / ____/  ____   ____ _   ____ ___     |
|     / / __   / _ \  /  |/ /  ______  / /_     / __ \ / __ `/  / __ `__ \    |
|    / /_/ /  /  __/ / /|  /  /_____/ / __/    / /_/ // /_/ /  / / / / / /    |
|    \____/   \___/ /_/ |_/          /_/       \____/ \__,_/  /_/ /_/ /_/     |
|    Copyright (C) 2015 - 2022 EPFL                                           |
\*---------------------------------------------------------------------------*/
FoamFile
{
    version     2.0;
    format      ascii;
    class       polyBoundaryMesh;
    object      boundary;
}
// * * * * * * * * * * * * * * * * * * * * * * * * * * * * * * * * * * * * * //

5
(
    outletP
    {
        type            patch;
        nFaces          1;
        startFace       118;
    }
    outletS
    {
        type            patch;
        nFaces          1;
        startFace       119;
    }
    walls
    {
        type            wall;
        inGroups        1(wall);
        nFaces          480;
        startFace       120;
    }
    inletP
    {
        type            patch;
        nFaces          1;
        startFace       600;
    }
    inletS
    {
        type            patch;
        nFaces          1;
        startFace       601;
    }
)

// ************************************************************************* //
