/*--------------------------------*- C++ -*----------------------------------*\
|       ______          _   __           ______                               |
|      / ____/  ___    / | / /          / ____/  ____   ____ _   ____ ___     |
|     / / __   / _ \  /  |/ /  ______  / /_     / __ \ / __ `/  / __ `__ \    |
|    / /_/ /  /  __/ / /|  /  /_____/ / __/    / /_/ // /_/ /  / / / / / /    |
|    \____/   \___/ /_/ |_/          /_/       \____/ \__,_/  /_/ /_/ /_/     |
|    Copyright (C) 2015 - 2022 EPFL                                           |
\*---------------------------------------------------------------------------*/
FoamFile
{
    version     2.0;
    format      ascii;
    class       dictionary;
    object      turbulenceProperties;
}
// * * * * * * * * * * * * * * * * * * * * * * * * * * * * * * * * * * * * * //

simulationType RAS;	// laminar;//

RAS
{
    RASModel        porousKEpsilon;//laminar;//kEpsilon;//;

    turbulence      true;

    printCoeffs     true;

    //- Turbulent Prandtl number (defaults to 1)
    //  Prt          1;
}

porousKEpsilonProperties
{
	"hx"
	{
		convergenceLength           0.5;
        turbulenceIntensityCoeff    0.16;
        turbulenceIntensityExp      -0.125;
        turbulenceLengthScaleCoeff  0.07;
	}
}

// ************************************************************************* //
