/*--------------------------------*- C++ -*----------------------------------*\
|       ______          _   __           ______                               |
|      / ____/  ___    / | / /          / ____/  ____   ____ _   ____ ___     |
|     / / __   / _ \  /  |/ /  ______  / /_     / __ \ / __ `/  / __ `__ \    |
|    / /_/ /  /  __/ / /|  /  /_____/ / __/    / /_/ // /_/ /  / / / / / /    |
|    \____/   \___/ /_/ |_/          /_/       \____/ \__,_/  /_/ /_/ /_/     |
|    Copyright (C) 2015 - 2022 EPFL                                           |
\*---------------------------------------------------------------------------*/
FoamFile
{
    version     2.0;
    format      ascii;
    class       dictionary;
    object      blockMeshDict;
}
// * * * * * * * * * * * * * * * * * * * * * * * * * * * * * * * * * * * * * //

convertToMeters 0.1;

y0 0;

y1 0.25;

y2 0.75;

y3 1;

x0 0;

x1 1;

z0 0;

z1 0.01;

vertices
(
    ($x0 $y0 $z0)
    ($x1 $y0 $z0)
    ($x1 $y1 $z0)
    ($x0 $y1 $z0)
    ($x0 $y0 $z1)
    ($x1 $y0 $z1)
    ($x1 $y1 $z1)
    ($x0 $y1 $z1)
    ($x0 $y2 $z0)
    ($x1 $y2 $z0)
    ($x1 $y3 $z0)
    ($x0 $y3 $z0)
    ($x0 $y2 $z1)
    ($x1 $y2 $z1)
    ($x1 $y3 $z1)
    ($x0 $y3 $z1)
);

blocks
(
    hex (0 1 2 3 4 5 6 7) low (40 10 1) simpleGrading (1 1 1)
    hex (3 2 9 8 7 6 13 12) mid (40 20 1) simpleGrading (1 1 1)
    hex (8 9 10 11 12 13 14 15) top (40 10 1) simpleGrading (1 1 1) 
);

edges
(
);

boundary
(
    top
    {
        type wall;
        faces
        (
            (10 11 15 14)
        );
    }
    bottom
    {
        type wall;
        faces
        (
            (0 1 5 4)
        );
    }
    fixedWalls
    {
        type wall;
        faces
        (
            (4 7 3 0)
            (7 12 8 3)
            (12 15 11 8)
            (1 2 6 5)
            (2 9 13 6)
            (9 10 14 13)
        );
    }
    frontAndBack
    {
        type empty;
        faces
        (
            (4 5 6 7)
            (6 13 12 7)
            (13 14 15 12)
            (1 0 3 2)
            (2 3 8 9)
            (9 8 11 10)
        );
    }
);

mergePatchPairs
(
);

// ************************************************************************* //
