/*--------------------------------*- C++ -*----------------------------------*\
|       ______          _   __           ______                               |
|      / ____/  ___    / | / /          / ____/  ____   ____ _   ____ ___     |
|     / / __   / _ \  /  |/ /  ______  / /_     / __ \ / __ `/  / __ `__ \    |
|    / /_/ /  /  __/ / /|  /  /_____/ / __/    / /_/ // /_/ /  / / / / / /    |
|    \____/   \___/ /_/ |_/          /_/       \____/ \__,_/  /_/ /_/ /_/     |
|    Copyright (C) 2015 - 2022 EPFL                                           |
\*---------------------------------------------------------------------------*/
FoamFile
{
    version     2.0;
    format      ascii;
    class       dictionary;
    object      msfr_c_res;
}
 energyGroups 6 ; 

 precGroups 8 ; 
 rhoCoolRef 4.125e+03 ; 
 rhoCoolPerturbed 3.419e+03 ; 
zones 
 ( 
hx       
{ 
 IV nonuniform List<scalar> 6 (3.988370e-08 7.534040e-08 2.704860e-07 6.649820e-07 1.821650e-06 6.580100e-06  );
 D nonuniform List<scalar> 6 (2.862190e-02 1.904590e-02 1.209190e-02 1.457810e-02 1.391220e-02 1.331760e-02  );
 nuSigmaEff nonuniform List<scalar> 6 (4.770880e-01 3.112370e-01 3.405600e-01 5.163940e-01 1.215720e+00 3.944140e+00  );
 sigmaPow nonuniform List<scalar> 6 (5.574122e-12 3.879768e-12 4.349346e-12 6.614719e-12 1.557924e-11 5.057750e-11  );
 scatteringMatrixP0  6  6 ( 
 ( 1.088230e+01  4.841070e+00  5.555620e-01  3.415480e-03  2.304460e-04  4.438530e-06 )
  ( 0.000000e+00  1.781960e+01  3.087420e+00  5.097700e-03  3.708720e-04  2.075340e-06 )
  ( 0.000000e+00  0.000000e+00  2.830780e+01  1.174030e+00  2.345250e-03  2.310370e-05 )
  ( 0.000000e+00  0.000000e+00  0.000000e+00  2.203980e+01  1.066380e+00  0.000000e+00 )
  ( 0.000000e+00  0.000000e+00  0.000000e+00  0.000000e+00  2.332680e+01  1.751280e-01 )
  ( 0.000000e+00  0.000000e+00  0.000000e+00  0.000000e+00  0.000000e+00  2.280960e+01 )
 );
 sigmaDisapp nonuniform List<scalar> 6 (5.718000e+00 3.279100e+00 1.470400e+00 1.644000e+00 1.357700e+00 2.954500e+00  );
 chiPrompt nonuniform List<scalar> 6 (3.621430e-01 5.175020e-01 1.188720e-01 1.328820e-03 1.520840e-04 1.479490e-06  );
 chiDelayed nonuniform List<scalar> 6 (3.184720e-03 3.698860e-01 5.983040e-01 2.525020e-02 3.283340e-03 9.107870e-05  );
 Beta nonuniform List<scalar> 8 (2.172400e-04 4.225900e-04 3.700800e-04 5.736500e-04 9.062950e-04 1.368960e-04 1.976220e-04 3.989810e-05  );
 lambda nonuniform List<scalar> 8 (1.246670e-02 2.829170e-02 4.252440e-02 1.330420e-01 2.924670e-01 6.664880e-01 1.634780e+00 3.092500e+00  );
 discFactor nonuniform List<scalar> 6 (1 1 1 1 1 1  );
 integralFlux nonuniform List<scalar> 6 (1.000000e+00 1.000000e+00 1.000000e+00 1.000000e+00 1.000000e+00 1.000000e+00  );
 } 
intermed 
{ 
 IV nonuniform List<scalar> 6 (3.988370e-08 7.534040e-08 2.704860e-07 6.649820e-07 1.821650e-06 6.580100e-06  );
 D nonuniform List<scalar> 6 (2.862190e-02 1.904590e-02 1.209190e-02 1.457810e-02 1.391220e-02 1.331760e-02  );
 nuSigmaEff nonuniform List<scalar> 6 (4.770880e-01 3.112370e-01 3.405600e-01 5.163940e-01 1.215720e+00 3.944140e+00  );
 sigmaPow nonuniform List<scalar> 6 (5.574122e-12 3.879768e-12 4.349346e-12 6.614719e-12 1.557924e-11 5.057750e-11  );
 scatteringMatrixP0  6  6 ( 
 ( 1.088230e+01  4.841070e+00  5.555620e-01  3.415480e-03  2.304460e-04  4.438530e-06 )
  ( 0.000000e+00  1.781960e+01  3.087420e+00  5.097700e-03  3.708720e-04  2.075340e-06 )
  ( 0.000000e+00  0.000000e+00  2.830780e+01  1.174030e+00  2.345250e-03  2.310370e-05 )
  ( 0.000000e+00  0.000000e+00  0.000000e+00  2.203980e+01  1.066380e+00  0.000000e+00 )
  ( 0.000000e+00  0.000000e+00  0.000000e+00  0.000000e+00  2.332680e+01  1.751280e-01 )
  ( 0.000000e+00  0.000000e+00  0.000000e+00  0.000000e+00  0.000000e+00  2.280960e+01 )
 );
 sigmaDisapp nonuniform List<scalar> 6 (5.718000e+00 3.279100e+00 1.470400e+00 1.644000e+00 1.357700e+00 2.954500e+00  );
 chiPrompt nonuniform List<scalar> 6 (3.621430e-01 5.175020e-01 1.188720e-01 1.328820e-03 1.520840e-04 1.479490e-06  );
 chiDelayed nonuniform List<scalar> 6 (3.184720e-03 3.698860e-01 5.983040e-01 2.525020e-02 3.283340e-03 9.107870e-05  );
 Beta nonuniform List<scalar> 8 (2.172400e-04 4.225900e-04 3.700800e-04 5.736500e-04 9.062950e-04 1.368960e-04 1.976220e-04 3.989810e-05  );
 lambda nonuniform List<scalar> 8 (1.246670e-02 2.829170e-02 4.252440e-02 1.330420e-01 2.924670e-01 6.664880e-01 1.634780e+00 3.092500e+00  );
 discFactor nonuniform List<scalar> 6 (1 1 1 1 1 1  );
 integralFlux nonuniform List<scalar> 6 (1.000000e+00 1.000000e+00 1.000000e+00 1.000000e+00 1.000000e+00 1.000000e+00  );
 } 
pump     
{ 
 IV nonuniform List<scalar> 6 (3.988370e-08 7.534040e-08 2.704860e-07 6.649820e-07 1.821650e-06 6.580100e-06  );
 D nonuniform List<scalar> 6 (2.862190e-02 1.904590e-02 1.209190e-02 1.457810e-02 1.391220e-02 1.331760e-02  );
 nuSigmaEff nonuniform List<scalar> 6 (4.770880e-01 3.112370e-01 3.405600e-01 5.163940e-01 1.215720e+00 3.944140e+00  );
 sigmaPow nonuniform List<scalar> 6 (5.574122e-12 3.879768e-12 4.349346e-12 6.614719e-12 1.557924e-11 5.057750e-11  );
 scatteringMatrixP0  6  6 ( 
 ( 1.088230e+01  4.841070e+00  5.555620e-01  3.415480e-03  2.304460e-04  4.438530e-06 )
  ( 0.000000e+00  1.781960e+01  3.087420e+00  5.097700e-03  3.708720e-04  2.075340e-06 )
  ( 0.000000e+00  0.000000e+00  2.830780e+01  1.174030e+00  2.345250e-03  2.310370e-05 )
  ( 0.000000e+00  0.000000e+00  0.000000e+00  2.203980e+01  1.066380e+00  0.000000e+00 )
  ( 0.000000e+00  0.000000e+00  0.000000e+00  0.000000e+00  2.332680e+01  1.751280e-01 )
  ( 0.000000e+00  0.000000e+00  0.000000e+00  0.000000e+00  0.000000e+00  2.280960e+01 )
 );
 sigmaDisapp nonuniform List<scalar> 6 (5.718000e+00 3.279100e+00 1.470400e+00 1.644000e+00 1.357700e+00 2.954500e+00  );
 chiPrompt nonuniform List<scalar> 6 (3.621430e-01 5.175020e-01 1.188720e-01 1.328820e-03 1.520840e-04 1.479490e-06  );
 chiDelayed nonuniform List<scalar> 6 (3.184720e-03 3.698860e-01 5.983040e-01 2.525020e-02 3.283340e-03 9.107870e-05  );
 Beta nonuniform List<scalar> 8 (2.172400e-04 4.225900e-04 3.700800e-04 5.736500e-04 9.062950e-04 1.368960e-04 1.976220e-04 3.989810e-05  );
 lambda nonuniform List<scalar> 8 (1.246670e-02 2.829170e-02 4.252440e-02 1.330420e-01 2.924670e-01 6.664880e-01 1.634780e+00 3.092500e+00  );
 discFactor nonuniform List<scalar> 6 (1 1 1 1 1 1  );
 integralFlux nonuniform List<scalar> 6 (1.000000e+00 1.000000e+00 1.000000e+00 1.000000e+00 1.000000e+00 1.000000e+00  );
 } 
main_fd  
{ 
 IV nonuniform List<scalar> 6 (3.988370e-08 7.534040e-08 2.704860e-07 6.649820e-07 1.821650e-06 6.580100e-06  );
 D nonuniform List<scalar> 6 (2.862190e-02 1.904590e-02 1.209190e-02 1.457810e-02 1.391220e-02 1.331760e-02  );
 nuSigmaEff nonuniform List<scalar> 6 (4.770880e-01 3.112370e-01 3.405600e-01 5.163940e-01 1.215720e+00 3.944140e+00  );
 sigmaPow nonuniform List<scalar> 6 (5.574122e-12 3.879768e-12 4.349346e-12 6.614719e-12 1.557924e-11 5.057750e-11  );
 scatteringMatrixP0  6  6 ( 
 ( 1.088230e+01  4.841070e+00  5.555620e-01  3.415480e-03  2.304460e-04  4.438530e-06 )
  ( 0.000000e+00  1.781960e+01  3.087420e+00  5.097700e-03  3.708720e-04  2.075340e-06 )
  ( 0.000000e+00  0.000000e+00  2.830780e+01  1.174030e+00  2.345250e-03  2.310370e-05 )
  ( 0.000000e+00  0.000000e+00  0.000000e+00  2.203980e+01  1.066380e+00  0.000000e+00 )
  ( 0.000000e+00  0.000000e+00  0.000000e+00  0.000000e+00  2.332680e+01  1.751280e-01 )
  ( 0.000000e+00  0.000000e+00  0.000000e+00  0.000000e+00  0.000000e+00  2.280960e+01 )
 );
 sigmaDisapp nonuniform List<scalar> 6 (5.718000e+00 3.279100e+00 1.470400e+00 1.644000e+00 1.357700e+00 2.954500e+00  );
 chiPrompt nonuniform List<scalar> 6 (3.621430e-01 5.175020e-01 1.188720e-01 1.328820e-03 1.520840e-04 1.479490e-06  );
 chiDelayed nonuniform List<scalar> 6 (3.184720e-03 3.698860e-01 5.983040e-01 2.525020e-02 3.283340e-03 9.107870e-05  );
 Beta nonuniform List<scalar> 8 (2.172400e-04 4.225900e-04 3.700800e-04 5.736500e-04 9.062950e-04 1.368960e-04 1.976220e-04 3.989810e-05  );
 lambda nonuniform List<scalar> 8 (1.246670e-02 2.829170e-02 4.252440e-02 1.330420e-01 2.924670e-01 6.664880e-01 1.634780e+00 3.092500e+00  );
 discFactor nonuniform List<scalar> 6 (1 1 1 1 1 1  );
 integralFlux nonuniform List<scalar> 6 (1.000000e+00 1.000000e+00 1.000000e+00 1.000000e+00 1.000000e+00 1.000000e+00  );
 } 

 ); 
