/*--------------------------------*- C++ -*----------------------------------*\
|       ______          _   __           ______                               |
|      / ____/  ___    / | / /          / ____/  ____   ____ _   ____ ___     |
|     / / __   / _ \  /  |/ /  ______  / /_     / __ \ / __ `/  / __ `__ \    |
|    / /_/ /  /  __/ / /|  /  /_____/ / __/    / /_/ // /_/ /  / / / / / /    |
|    \____/   \___/ /_/ |_/          /_/       \____/ \__,_/  /_/ /_/ /_/     |
|    Copyright (C) 2015 - 2022 EPFL                                           |
\*---------------------------------------------------------------------------*/
FoamFile
{
    version     2.0;
    format      ascii;
    class       dictionary;
    object      thermophysicalProperties;
}
// * * * * * * * * * * * * * * * * * * * * * * * * * * * * * * * * * * * * * //

thermoType
{
    type            heRhoThermo;
    mixture         pureMixture;
    transport       polynomial;
    thermo          hPolynomial;
    equationOfState icoPolynomial;
    specie          specie;
    energy          sensibleEnthalpy;
}

mixture
{
    specie
    {
        nMoles          1;
        molWeight       22.9898;
    }
    equationOfState
    {
        rhoCoeffs<8>       (860 0 0 0 0 0 0 0);
    }
    thermodynamics
    {
        CpCoeffs<8>        (1646.97 -0.831587 4.31182e-04 0 0 0 0 0);
        Hf             0;
        Sf             0;
    }
    transport
    {
        muCoeffs<8>        (2e-4 0 0 0 0 0 0 0);
        kappaCoeffs<8>     (60 0 0 0 0 0 0 0);
    }
}

// ************************************************************************* //
