/*--------------------------------*- C++ -*----------------------------------*\
|       ______          _   __           ______                               |
|      / ____/  ___    / | / /          / ____/  ____   ____ _   ____ ___     |
|     / / __   / _ \  /  |/ /  ______  / /_     / __ \ / __ `/  / __ `__ \    |
|    / /_/ /  /  __/ / /|  /  /_____/ / __/    / /_/ // /_/ /  / / / / / /    |
|    \____/   \___/ /_/ |_/          /_/       \____/ \__,_/  /_/ /_/ /_/     |
|    Copyright (C) 2015 - 2022 EPFL                                           |
\*---------------------------------------------------------------------------*/
FoamFile
{
    version     2.0;
    format      ascii;
    class       dictionary;
    object      thermophysicalProperties;
}
// * * * * * * * * * * * * * * * * * * * * * * * * * * * * * * * * * * * * * //

thermoType
{
    type            heRhoThermo;
    mixture         pureMixture;
    transport       polynomial;
    thermo          hPolynomial;
    equationOfState icoPolynomial; //perfectGas;
    specie          specie;
    energy          sensibleEnthalpy;
}

pRef                100000;

mixture
{
    specie
    {
        molWeight           22.989769;
    }

    equationOfState
    {
        rhoCoeffs<8>        (1000 0 0 0 0 0 0 0);
    }

    thermodynamics
    {
        CpCoeffs<8>         (850 0 0 0 0 0 0 0);

        Hf                  0;

        Sf                  0;
    }

    transport
    {
        muCoeffs<8>         (1.8e-4 0 0 0 0 0 0 0);

        kappaCoeffs<8>      (65 0 0 0 0 0 0 0);
    }
}

// ************************************************************************* //
