/*--------------------------------*- C++ -*----------------------------------*\
|       ______          _   __           ______                               |
|      / ____/  ___    / | / /          / ____/  ____   ____ _   ____ ___     |
|     / / __   / _ \  /  |/ /  ______  / /_     / __ \ / __ `/  / __ `__ \    |
|    / /_/ /  /  __/ / /|  /  /_____/ / __/    / /_/ // /_/ /  / / / / / /    |
|    \____/   \___/ /_/ |_/          /_/       \____/ \__,_/  /_/ /_/ /_/     |
|    Copyright (C) 2015 - 2022 EPFL                                           |
\*---------------------------------------------------------------------------*/
FoamFile
{
    version     2.0;
    format      ascii;
    class       dictionary;
    object      blockMeshDict;
}
// * * * * * * * * * * * * * * * * * * * * * * * * * * * * * * * * * * * * * //

convertToMeters 1;

vertices
(
    ( 0.0 0.0 0.0 ) // 0
    ( 1.78 -0.031070015572227303 0.0 ) // 1
    ( 1.78 0.031070015572227303 0.0 ) // 2
    ( 0.0 0.0 2.0 ) // 3
    ( 1.78 -0.031070015572227303 2.0 ) // 4
    ( 1.78 0.031070015572227303 2.0 ) // 5
    ( 2.44 -0.042590358424850906 0.0 ) // 6
    ( 2.44 0.042590358424850906 0.0 ) // 7
    ( 2.44 -0.042590358424850906 2.0 ) // 8
    ( 2.44 0.042590358424850906 2.0 ) // 9
    ( 4.25 -0.07418402594492474 0.0 ) // 10
    ( 4.25 0.07418402594492474 0.0 ) // 11
    ( 4.25 -0.07418402594492474 2.0 ) // 12
    ( 4.25 0.07418402594492474 2.0 ) // 13
    ( 5.0 -0.08727532464108792 0.0 ) // 14
    ( 5.0 0.08727532464108792 0.0 ) // 15
    ( 5.0 -0.08727532464108792 2.0 ) // 16
    ( 5.0 0.08727532464108792 2.0 ) // 17
    ( 0.0 0.0 3.3 ) // 18
    ( 1.78 -0.031070015572227303 3.3 ) // 19
    ( 1.78 0.031070015572227303 3.3 ) // 20
    ( 2.44 -0.042590358424850906 3.3 ) // 21
    ( 2.44 0.042590358424850906 3.3 ) // 22
    ( 4.25 -0.07418402594492474 3.3 ) // 23
    ( 4.25 0.07418402594492474 3.3 ) // 24
    ( 5.0 -0.08727532464108792 3.3 ) // 25
    ( 5.0 0.08727532464108792 3.3 ) // 26
    ( 0.0 0.0 4.96 ) // 27
    ( 1.78 -0.031070015572227303 4.96 ) // 28
    ( 1.78 0.031070015572227303 4.96 ) // 29
    ( 2.44 -0.042590358424850906 4.96 ) // 30
    ( 2.44 0.042590358424850906 4.96 ) // 31
    ( 4.25 -0.07418402594492474 4.96 ) // 32
    ( 4.25 0.07418402594492474 4.96 ) // 33
    ( 5.0 -0.08727532464108792 4.96 ) // 34
    ( 5.0 0.08727532464108792 4.96 ) // 35
    ( 0.0 0.0 5.96 ) // 36
    ( 1.78 -0.031070015572227303 5.96 ) // 37
    ( 1.78 0.031070015572227303 5.96 ) // 38
    ( 2.44 -0.042590358424850906 5.96 ) // 39
    ( 2.44 0.042590358424850906 5.96 ) // 40
    ( 4.25 -0.07418402594492474 5.96 ) // 41
    ( 4.25 0.07418402594492474 5.96 ) // 42
    ( 5.0 -0.08727532464108792 5.96 ) // 43
    ( 5.0 0.08727532464108792 5.96 ) // 44
    ( 0.0 0.0 7.45 ) // 45
    ( 1.78 -0.031070015572227303 7.45 ) // 46
    ( 1.78 0.031070015572227303 7.45 ) // 47
    ( 2.44 -0.042590358424850906 7.45 ) // 48
    ( 2.44 0.042590358424850906 7.45 ) // 49
    ( 4.25 -0.07418402594492474 7.45 ) // 50
    ( 4.25 0.07418402594492474 7.45 ) // 51
    ( 5.0 -0.08727532464108792 7.45 ) // 52
    ( 5.0 0.08727532464108792 7.45 ) // 53
    ( 0.0 0.0 9.45 ) // 54
    ( 1.78 -0.031070015572227303 9.45 ) // 55
    ( 1.78 0.031070015572227303 9.45 ) // 56
    ( 2.44 -0.042590358424850906 9.45 ) // 57
    ( 2.44 0.042590358424850906 9.45 ) // 58
    ( 4.25 -0.07418402594492474 9.45 ) // 59
    ( 4.25 0.07418402594492474 9.45 ) // 60
    ( 5.0 -0.08727532464108792 9.45 ) // 61
    ( 5.0 0.08727532464108792 9.45 ) // 62
);

blocks
(
    hex ( 45 46 47 45 54 55 56 54 ) softStructure (9 1 10) simpleGrading (1 1 1)
    hex ( 46 48 49 47 55 57 58 56 ) softStructure (3 1 10) simpleGrading (1 1 1)
    hex ( 48 50 51 49 57 59 60 58 ) softStructure (9 1 10) simpleGrading (1 1 1)
    hex ( 50 52 53 51 59 61 62 60 ) softStructure (3 1 10) simpleGrading (1 1 1)
    hex ( 36 37 38 36 45 46 47 45 ) softStructure (9 1 7) simpleGrading (1 1 1)
    hex ( 37 39 40 38 46 48 49 47 ) softStructure (3 1 7) simpleGrading (1 1 1)
    hex ( 39 41 42 40 48 50 51 49 ) radialReflector (9 1 7) simpleGrading (1 1 1)
    hex ( 41 43 44 42 50 52 53 51 ) softStructure (3 1 7) simpleGrading (1 1 1)
    hex ( 27 28 29 27 36 37 38 36 ) innerCore (9 1 5) simpleGrading (1 1 1)
    hex ( 28 30 31 29 37 39 40 38 ) outerCore (3 1 5) simpleGrading (1 1 1)
    hex ( 30 32 33 31 39 41 42 40 ) radialReflector (9 1 5) simpleGrading (1 1 1)
    hex ( 32 34 35 33 41 43 44 42 ) softStructure (3 1 5) simpleGrading (1 1 1)
    hex ( 18 19 20 18 27 28 29 27 ) softStructure (9 1 8) simpleGrading (1 1 1)
    hex ( 19 21 22 20 28 30 31 29 ) softStructure (3 1 8) simpleGrading (1 1 1)
    hex ( 21 23 24 22 30 32 33 31 ) radialReflector (9 1 8) simpleGrading (1 1 1)
    hex ( 23 25 26 24 32 34 35 33 ) softStructure (3 1 8) simpleGrading (1 1 1)
    hex ( 3 4 5 3 18 19 20 18 ) diagrid (9 1 6) simpleGrading (1 1 1)
    hex ( 4 8 9 5 19 21 22 20 ) diagrid (3 1 6) simpleGrading (1 1 1)
    hex ( 8 12 13 9 21 23 24 22 ) diagrid (9 1 6) simpleGrading (1 1 1)
    hex ( 12 16 17 13 23 25 26 24 ) softStructure (3 1 6) simpleGrading (1 1 1)
    hex ( 0 1 2 0 3 4 5 3 ) softStructure (9 1 10) simpleGrading (1 1 1)
    hex ( 1 6 7 2 4 8 9 5 ) softStructure (3 1 10) simpleGrading (1 1 1)
    hex ( 6 10 11 7 8 12 13 9 ) softStructure (9 1 10) simpleGrading (1 1 1)
    hex ( 10 14 15 11 12 16 17 13 ) softStructure (3 1 10) simpleGrading (1 1 1)
);

edges
(
);

boundary
(
    topWall
    {
        type wall;
        faces
        (
            ( 54 54 56 55 )
            ( 55 56 58 57 )
            ( 57 58 60 59 )
            ( 59 60 62 61 )
        );
    }
    wedgeY+
    {
        type wedge;
        faces
        (
            ( 47 56 54 45 )
            ( 49 58 56 47 )
            ( 51 60 58 49 )
            ( 53 62 60 51 )
            ( 38 47 45 36 )
            ( 40 49 47 38 )
            ( 42 51 49 40 )
            ( 44 53 51 42 )
            ( 29 38 36 27 )
            ( 31 40 38 29 )
            ( 33 42 40 31 )
            ( 35 44 42 33 )
            ( 20 29 27 18 )
            ( 22 31 29 20 )
            ( 24 33 31 22 )
            ( 26 35 33 24 )
            ( 5 20 18 3 )
            ( 9 22 20 5 )
            ( 13 24 22 9 )
            ( 17 26 24 13 )
            ( 2 5 3 0 )
            ( 7 9 5 2 )
            ( 11 13 9 7 )
            ( 15 17 13 11 )
        );
    }
    wedgeY-
    {
        type wedge;
        faces
        (
            ( 45 54 55 46 )
            ( 46 55 57 48 )
            ( 48 57 59 50 )
            ( 50 59 61 52 )
            ( 36 45 46 37 )
            ( 37 46 48 39 )
            ( 39 48 50 41 )
            ( 41 50 52 43 )
            ( 27 36 37 28 )
            ( 28 37 39 30 )
            ( 30 39 41 32 )
            ( 32 41 43 34 )
            ( 18 27 28 19 )
            ( 19 28 30 21 )
            ( 21 30 32 23 )
            ( 23 32 34 25 )
            ( 3 18 19 4 )
            ( 4 19 21 8 )
            ( 8 21 23 12 )
            ( 12 23 25 16 )
            ( 0 3 4 1 )
            ( 1 4 8 6 )
            ( 6 8 12 10 )
            ( 10 12 16 14 )
        );
    }
    walls
    {
        type wall;
        faces
        (
            ( 52 61 62 53 )
            ( 43 52 53 44 )
            ( 34 43 44 35 )
            ( 25 34 35 26 )
            ( 16 25 26 17 )
            ( 14 16 17 15 )
        );
    }
    bottomWall
    {
        type wall;
        faces
        (
            ( 0 1 2 0 )
            ( 1 6 7 2 )
            ( 6 10 11 7 )
            ( 10 14 15 11 )
        );
    }
);
