/*--------------------------------*- C++ -*----------------------------------*\
|       ______          _   __           ______                               |
|      / ____/  ___    / | / /          / ____/  ____   ____ _   ____ ___     |
|     / / __   / _ \  /  |/ /  ______  / /_     / __ \ / __ `/  / __ `__ \    |
|    / /_/ /  /  __/ / /|  /  /_____/ / __/    / /_/ // /_/ /  / / / / / /    |
|    \____/   \___/ /_/ |_/          /_/       \____/ \__,_/  /_/ /_/ /_/     |
|    Copyright (C) 2015 - 2022 EPFL                                           |
\*---------------------------------------------------------------------------*/
FoamFile
{
    version     2.0;
    format      ascii;
    class       dictionary;
    object      controlDict;
}
// * * * * * * * * * * * * * * * * * * * * * * * * * * * * * * * * * * * * * //

/*
libs
(
    "libcompressibleTurbulenceModel.so"
    "libcompressibleRASModels.so"
);
*/

application     chtMultiRegionFoam;

startFrom       startTime;//latestTime;//

startTime      0;

stopAt       endTime;// writeNow;// 

endTime        10;

deltaT          0.01;

writeControl   adjustableRunTime;//timeStep;//

writeInterval   10;

purgeWrite      0;

writeFormat     binary;

writePrecision  7;

writeCompression off;

timeFormat      general;

timePrecision   8;

runTimeModifiable yes;

maxCo           0.9;

// Maximum diffusion number
maxDi           10.0;

maxDiFuel	0.5;//0.49; //should be less than 0.5 for stability, but if you are not to arsh with the transient...

maxPowerVariation	0.025; //max power variation in each time step

tighltyCoupled  false;

timeStepResidual	0.00001;

neutronIterationResidual	0.000001;

maxTimeStepIterations	3;

maxNeutronIterations	2;

adjustTimeStep  true;

maxDeltaT	0.05;

compr false; //compressible simulation

solveFluidMechanics  true;

solveEnergy  true;

solveNeutronics  false;

eigenvalueNeutronics  false;

solveThermalMechanics  false;

implicitFuel  true;

powerControl false;

powerControlIntegral		1e-2;

powerControlPorportional		1e-3;

oneGroupAcceleration		false;//under development

doNotParametrize ();

// ************************************************************************* //

