/*--------------------------------*- C++ -*----------------------------------*\
|       ______          _   __           ______                               |
|      / ____/  ___    / | / /          / ____/  ____   ____ _   ____ ___     |
|     / / __   / _ \  /  |/ /  ______  / /_     / __ \ / __ `/  / __ `__ \    |
|    / /_/ /  /  __/ / /|  /  /_____/ / __/    / /_/ // /_/ /  / / / / / /    |
|    \____/   \___/ /_/ |_/          /_/       \____/ \__,_/  /_/ /_/ /_/     |
|    Copyright (C) 2015 - 2022 EPFL                                           |
\*---------------------------------------------------------------------------*/
FoamFile
{
    version     2.0;
    format      ascii;
    class       dictionary;
    object      controlDict;
}
// * * * * * * * * * * * * * * * * * * * * * * * * * * * * * * * * * * * * * //

// ************************************************************************* //
// General

application     GeN-Foam;

startFrom       startTime;//latestTime;//

startTime      0;

stopAt      endTime;//  writeNow;// 

endTime 600.0;

deltaT 0.05;

adjustTimeStep  false; // adjust time step based on CFL condition, max power and max delta T

maxDeltaT	1; // max time step

writeControl   	runTime;//adjustableRunTime;//timeStep;//

writeInterval 600.0;

purgeWrite      0;

writeFormat     ascii;

writePrecision  7;

writeCompression off;

timeFormat      general;

timePrecision   8;

runTimeModifiable yes;

// ************************************************************************* //
// Physics to solve

solveFluidMechanics 0;

solveEnergy 1;

solveNeutronics 1;

solveThermalMechanics 1;

// ************************************************************************* //
// Thermal-hydraulic options

compr false; // true for compressible simulation

liquidFuel	false; // eg, MSRs

// ************************************************************************* //
// Solution control

maxCo           0.99; // should be below 1 for CFL condition (necessary to guarantee stability if solving NS)

maxPowerVariation	0.025; //max power variation in each time step

// ************************************************************************* //