/*--------------------------------*- C++ -*----------------------------------*\
| =========                 |                                                 |
| \\      /  F ield         | OpenFOAM: The Open Source CFD Toolbox           |
|  \\    /   O peration     | Version:  2206                                  |
|   \\  /    A nd           | Website:  www.openfoam.com                      |
|    \\/     M anipulation  |                                                 |
\*---------------------------------------------------------------------------*/
FoamFile
{
    version     2.0;
    format      ascii;
    arch        "LSB;label=32;scalar=64";
    class       polyBoundaryMesh;
    location    "constant/polyMesh";
    object      boundary;
}
// * * * * * * * * * * * * * * * * * * * * * * * * * * * * * * * * * * * * * //

5
(
    outletCentralUnloaded
    {
        type            patch;
        nFaces          2;
        startFace       811;
    }
    inletCentralUnloaded
    {
        type            patch;
        nFaces          2;
        startFace       813;
    }
    outletFuelElement
    {
        type            patch;
        nFaces          12;
        startFace       815;
    }
    inletFuelElement
    {
        type            patch;
        nFaces          12;
        startFace       827;
    }
    defaultFaces
    {
        type            patch;
        nFaces          450;
        startFace       839;
    }
)

// ************************************************************************* //
