/*--------------------------------*- C++ -*----------------------------------*\
| =========                 |                                                 |
| \\      /  F ield         | OpenFOAM: The Open Source CFD Toolbox           |
|  \\    /   O peration     | Version:  2.2.1                                 |
|   \\  /    A nd           | Web:      www.OpenFOAM.org                      |
|    \\/     M anipulation  |                                                 |
\*---------------------------------------------------------------------------*/
FoamFile
{
    version     2.0;
    format      ascii;
    class       dictionary;
    object      createBafflesDict;
}
// * * * * * * * * * * * * * * * * * * * * * * * * * * * * * * * * * * * * * //

// Whether to convert internal faces only (so leave boundary faces intact).
// This is only relevant if your face selection type can pick up boundary
// faces.
internalFacesOnly true;




// Baffles to create.
baffles
{
    baffleFaces
    {
        //- Use predefined faceZone to select faces and orientation.
        type        faceZone;
        zoneName    walls;


        //- Optional flip
        //flip        false;

        patches
        {
            master
            {
                //- Master side patch
                name            baffle0;

                type            mappedWall;
                sampleMode      nearestPatchFace;
                sampleRegion    fluid;
                samplePatch     baffle1;
                offsetMode      uniform;
                offset          (0 0 0);


                patchFields
                {
                    T
                    {
                        type  		 zeroGradient;
                    }

                    p_rgh
                    {
			type            zeroGradient;
			value           uniform 100000;
                    }
                    U
                    {
                        type            slip;
                    }
                }
            }
            slave
            {
                //- Slave side patch
                name            baffle1;

                type            mappedWall;
                sampleMode      nearestPatchFace;
                sampleRegion    fluid;
                samplePatch     baffle0;
                offsetMode      uniform;
                offset          (0 0 0);

                patchFields
                {
                    ${...master.patchFields}
                }
            }
        }
    }
}


// ************************************************************************* //
