/*--------------------------------*- C++ -*----------------------------------*\
|       ______          _   __           ______                               |
|      / ____/  ___    / | / /          / ____/  ____   ____ _   ____ ___     |
|     / / __   / _ \  /  |/ /  ______  / /_     / __ \ / __ `/  / __ `__ \    |
|    / /_/ /  /  __/ / /|  /  /_____/ / __/    / /_/ // /_/ /  / / / / / /    |
|    \____/   \___/ /_/ |_/          /_/       \____/ \__,_/  /_/ /_/ /_/     |
|    Copyright (C) 2015 - 2022 EPFL                                           |
\*---------------------------------------------------------------------------*/
FoamFile
{
    version     2.0;
    format      binary;
    class       polyBoundaryMesh;
    object      boundary;
}
// * * * * * * * * * * * * * * * * * * * * * * * * * * * * * * * * * * * * * //

6
(
    front
    {
        type            wedge;
        inGroups        1(wedge);
        nFaces          16140;
        startFace       31851;
    }
    topwall
    {
        type            patch;
        nFaces          70;
        startFace       47991;
    }
    bottomwall
    {
        type            patch;
        nFaces          70;
        startFace       48061;
    }
    reflector
    {
        type            patch;
        nFaces          105;
        startFace       48131;
    }
    hx
    {
        type            patch;
        nFaces          540;
        startFace       48236;
    }
    back
    {
        type            wedge;
        inGroups        1(wedge);
        nFaces          16140;
        startFace       48776;
    }
)

// ************************************************************************* //
