/*--------------------------------*- C++ -*----------------------------------*\
|       ______          _   __           ______                               |
|      / ____/  ___    / | / /          / ____/  ____   ____ _   ____ ___     |
|     / / __   / _ \  /  |/ /  ______  / /_     / __ \ / __ `/  / __ `__ \    |
|    / /_/ /  /  __/ / /|  /  /_____/ / __/    / /_/ // /_/ /  / / / / / /    |
|    \____/   \___/ /_/ |_/          /_/       \____/ \__,_/  /_/ /_/ /_/     |
|    Copyright (C) 2015 - 2022 EPFL                                           |
\*---------------------------------------------------------------------------*/
FoamFile
{
    version     2.0;
    format      ascii;
    class       dictionary;
    object      fvSolution;
}
// * * * * * * * * * * * * * * * * * * * * * * * * * * * * * * * * * * * * * //

solvers
{
    ".*"
    {
        solver          PCG;
        preconditioner  DIC;
        tolerance       1e-07;
        relTol          0.0001;
    }
    "fuelDisp"
    {

        solver          PBiCG;
        preconditioner  DILU;
        tolerance       1e-7;
        relTol          0.0001;
    }
    "CRDisp"
    {

        solver          PBiCG;
        preconditioner  DILU;
        tolerance       1e-7;
        relTol          0.0001;
    }
}

stressAnalysis
{
    compactNormalStress yes;
    nCorrectors     6;
    D               1e-06;
}

relaxationFactors
{
    fields
    {
	   disp 0.95;
    }
}

// ************************************************************************* //
