/*--------------------------------*- C++ -*----------------------------------*\
|       ______          _   __           ______                               |
|      / ____/  ___    / | / /          / ____/  ____   ____ _   ____ ___     |
|     / / __   / _ \  /  |/ /  ______  / /_     / __ \ / __ `/  / __ `__ \    |
|    / /_/ /  /  __/ / /|  /  /_____/ / __/    / /_/ // /_/ /  / / / / / /    |
|    \____/   \___/ /_/ |_/          /_/       \____/ \__,_/  /_/ /_/ /_/     |
|    Copyright (C) 2015 - 2022 EPFL                                           |
\*---------------------------------------------------------------------------*/
FoamFile
{
    version     2.0;
    format      ascii;
    class       volVectorField;
    object      U;
}
// * * * * * * * * * * * * * * * * * * * * * * * * * * * * * * * * * * * * * //

dimensions      [0 1 -1 0 0 0 0];

internalField   uniform (0 0 0);

boundaryField
{
    front
    {
        type            wedge;
    }
    back
    {
        type            wedge;
    }
    topwall
    {
        type fixedValue;
        value uniform (0 0 0);
    }
    bottomwall
    {
        type fixedValue;
        value uniform (0 0 0);
    }
    reflector
    {
        type fixedValue;
        value uniform (0 0 0);
    }
    hx
    {
        type fixedValue;
        value uniform (0 0 0);
    }
}

// ************************************************************************* //
