/*--------------------------------*- C++ -*----------------------------------*\
|       ______          _   __           ______                               |
|      / ____/  ___    / | / /          / ____/  ____   ____ _   ____ ___     |
|     / / __   / _ \  /  |/ /  ______  / /_     / __ \ / __ `/  / __ `__ \    |
|    / /_/ /  /  __/ / /|  /  /_____/ / __/    / /_/ // /_/ /  / / / / / /    |
|    \____/   \___/ /_/ |_/          /_/       \____/ \__,_/  /_/ /_/ /_/     |
|    Copyright (C) 2015 - 2022 EPFL                                           |
\*---------------------------------------------------------------------------*/
FoamFile
{
    version     2.0;
    format      ascii;
    class       dictionary;
    object      blockMeshDict;
}
// * * * * * * * * * * * * * * * * * * * * * * * * * * * * * * * * * * * * * //

convertToMeters 1;

vertices
(
    ( 0.0 0.0 -1.55 ) // 0
    ( 0.021552584 -0.0003762017530908635 -1.55 ) // 1
    ( 0.021552584 0.0003762017530908635 -1.55 ) // 2
    ( 0.0 0.0 -1.35 ) // 3
    ( 0.021552584 -0.0003762017530908635 -1.35 ) // 4
    ( 0.021552584 0.0003762017530908635 -1.35 ) // 5
    ( 0.026559792 -0.00046360289383995395 -1.55 ) // 6
    ( 0.026559792 0.00046360289383995395 -1.55 ) // 7
    ( 0.026559792 -0.00046360289383995395 -1.35 ) // 8
    ( 0.026559792 0.00046360289383995395 -1.35 ) // 9
    ( 0.0 0.0 -0.45000000000000007 ) // 10
    ( 0.021552584 -0.0003762017530908635 -0.45000000000000007 ) // 11
    ( 0.021552584 0.0003762017530908635 -0.45000000000000007 ) // 12
    ( 0.026559792 -0.00046360289383995395 -0.45000000000000007 ) // 13
    ( 0.026559792 0.00046360289383995395 -0.45000000000000007 ) // 14
    ( 0.0 0.0 0.09999999999999998 ) // 15
    ( 0.021552584 -0.0003762017530908635 0.09999999999999998 ) // 16
    ( 0.021552584 0.0003762017530908635 0.09999999999999998 ) // 17
    ( 0.026559792 -0.00046360289383995395 0.09999999999999998 ) // 18
    ( 0.026559792 0.00046360289383995395 0.09999999999999998 ) // 19
    ( 0.0 0.0 0.5 ) // 20
    ( 0.021552584 -0.0003762017530908635 0.5 ) // 21
    ( 0.021552584 0.0003762017530908635 0.5 ) // 22
    ( 0.026559792 -0.00046360289383995395 0.5 ) // 23
    ( 0.026559792 0.00046360289383995395 0.5 ) // 24
);

blocks
(
    hex ( 15 16 17 15 20 21 22 20 ) pipe (5 1 10) simpleGrading (1 1 1)
    hex ( 16 18 19 17 21 23 24 22 ) pipe (2 1 10) simpleGrading (1 1 1)
    hex ( 10 11 12 10 15 16 17 15 ) topIn (5 1 15) simpleGrading (1 1 1)
    hex ( 11 13 14 12 16 18 19 17 ) topOut (2 1 15) simpleGrading (1 1 1)
    hex ( 3 4 5 3 10 11 12 10 ) midIn (5 1 23) simpleGrading (1 1 1)
    hex ( 4 8 9 5 11 13 14 12 ) midOut (2 1 23) simpleGrading (1 1 1)
    hex ( 0 1 2 0 3 4 5 3 ) lowIn (5 1 10) simpleGrading (1 1 1)
    hex ( 1 6 7 2 4 8 9 5 ) lowOut (2 1 10) simpleGrading (1 1 1)
);

edges
(
);

boundary
(
    outlet
    {
        type wall;
        faces
        (
            ( 20 20 22 21 )
            ( 21 22 24 23 )
        );
    }
    wedgeY+
    {
        type wedge;
        faces
        (
            ( 17 22 20 15 )
            ( 19 24 22 17 )
            ( 12 17 15 10 )
            ( 14 19 17 12 )
            ( 5 12 10 3 )
            ( 9 14 12 5 )
            ( 2 5 3 0 )
            ( 7 9 5 2 )
        );
    }
    wedgeY-
    {
        type wedge;
        faces
        (
            ( 15 20 21 16 )
            ( 16 21 23 18 )
            ( 10 15 16 11 )
            ( 11 16 18 13 )
            ( 3 10 11 4 )
            ( 4 11 13 8 )
            ( 0 3 4 1 )
            ( 1 4 8 6 )
        );
    }
    wrapper
    {
        type wall;
        faces
        (
            ( 18 23 24 19 )
            ( 13 18 19 14 )
            ( 8 13 14 9 )
            ( 6 8 9 7 )
        );
    }
    inlet
    {
        type wall;
        faces
        (
            ( 0 1 2 0 )
            ( 1 6 7 2 )
        );
    }
);
