/*--------------------------------*- C++ -*----------------------------------*\
|       ______          _   __           ______                               |
|      / ____/  ___    / | / /          / ____/  ____   ____ _   ____ ___     |
|     / / __   / _ \  /  |/ /  ______  / /_     / __ \ / __ `/  / __ `__ \    |
|    / /_/ /  /  __/ / /|  /  /_____/ / __/    / /_/ // /_/ /  / / / / / /    |
|    \____/   \___/ /_/ |_/          /_/       \____/ \__,_/  /_/ /_/ /_/     |
|    Copyright (C) 2015 - 2022 EPFL                                           |
\*---------------------------------------------------------------------------*/
FoamFile
{
    version     2.0;
    format      ascii;
    class       dictionary;
    object      cuttingPlaneCellsDict;
}
// * * * * * * * * * * * * * * * * * * * * * * * * * * * * * * * * * * * * * //

Z545
{
    cuttingPlanePoint       (0 0 -0.805);
    cuttingPlaneNormal      (0 0 1);
    //manipulationRegionType  cellZone;
    //manipulationRegionNames (mid);
    //manipulationMode        intersect;
    outputRegionType        cellSet;
}

Z779
{
    cuttingPlanePoint       (0 0 -0.571);
    cuttingPlaneNormal      (0 0 1);
    //manipulationRegionType  cellZone;
    //manipulationRegionNames (mid);
    //manipulationMode        intersect;
    outputRegionType        cellSet;
}

Z870
{
    cuttingPlanePoint       (0 0 -0.480);
    cuttingPlaneNormal      (0 0 1);
    //manipulationRegionType  cellZone;
    //manipulationRegionNames (mid);
    //manipulationMode        intersect;
    outputRegionType        cellSet;
}

Z1128
{
    cuttingPlanePoint       (0 0 -0.222);
    cuttingPlaneNormal      (0 0 1);
    //manipulationRegionType  cellZone;
    //manipulationRegionNames (mid);
    //manipulationMode        intersect;
    outputRegionType        cellSet;
}