/*--------------------------------*- C++ -*----------------------------------*\
|       ______          _   __           ______                               |
|      / ____/  ___    / | / /          / ____/  ____   ____ _   ____ ___     |
|     / / __   / _ \  /  |/ /  ______  / /_     / __ \ / __ `/  / __ `__ \    |
|    / /_/ /  /  __/ / /|  /  /_____/ / __/    / /_/ // /_/ /  / / / / / /    |
|    \____/   \___/ /_/ |_/          /_/       \____/ \__,_/  /_/ /_/ /_/     |
|    Copyright (C) 2015 - 2022 EPFL                                           |
\*---------------------------------------------------------------------------*/
FoamFile
{
    version     2.0;
    format      ascii;
    class       dictionary;
    object      plotOverLineDict;
}
// * * * * * * * * * * * * * * * * * * * * * * * * * * * * * * * * * * * * * //

radialTemperature
{
    field "T.liquid";
    time 9.095619;
    p0 (0 0 -0.571);
    p1 (0.03 0 -0.571);
    includeBoundaryValues false;
}

axialTemperature
{
    field "T.liquid";
    time 9.095619;
    p0 (0.0001 0 -1.35001);
    p1 (0.0001 0 0);
    includeBoundaryValues true;
}

axialTemperatureSteadyState
{
    field "T.liquid";
    time 2.995619;
    p0 (0.0001 0 -1.35001);
    p1 (0.0001 0 0);
    includeBoundaryValues true;
}

// ************************************************************************* //
