/*--------------------------------*- C++ -*----------------------------------*\
| =========                 |                                                 |
| \\      /  F ield         | OpenFOAM: The Open Source CFD Toolbox           |
|  \\    /   O peration     | Version:  2212                                  |
|   \\  /    A nd           | Website:  www.openfoam.com                      |
|    \\/     M anipulation  |                                                 |
\*---------------------------------------------------------------------------*/
FoamFile
{
    version     2.0;
    format      ascii;
    arch        "LSB;label=32;scalar=64";
    class       polyBoundaryMesh;
    location    "constant/polyMesh";
    object      boundary;
}
// * * * * * * * * * * * * * * * * * * * * * * * * * * * * * * * * * * * * * //

4
(
    inlet
    {
        type            patch;
        nFaces          25;
        startFace       1200;
    }
    outlet
    {
        type            patch;
        nFaces          25;
        startFace       1225;
    }
    fixedWalls
    {
        type            wall;
        inGroups        1(wall);
        nFaces          50;
        startFace       1250;
    }
    frontAndBack
    {
        type            empty;
        inGroups        1(empty);
        nFaces          1250;
        startFace       1300;
    }
)

// ************************************************************************* //
