/*--------------------------------*- C++ -*----------------------------------*\
|       ______          _   __           ______                               |
|      / ____/  ___    / | / /          / ____/  ____   ____ _   ____ ___     |
|     / / __   / _ \  /  |/ /  ______  / /_     / __ \ / __ `/  / __ `__ \    |
|    / /_/ /  /  __/ / /|  /  /_____/ / __/    / /_/ // /_/ /  / / / / / /    |
|    \____/   \___/ /_/ |_/          /_/       \____/ \__,_/  /_/ /_/ /_/     |
|    Copyright (C) 2015 - 2022 EPFL                                           |
\*---------------------------------------------------------------------------*/
FoamFile
{
    version     2.0;
    format      ascii;
    class       dictionary;
    object      fvSolution;
}
// * * * * * * * * * * * * * * * * * * * * * * * * * * * * * * * * * * * * * //
    
    nOuterCorrectors        6; // number of energy-pressure-velcity correctors
    tightlyCoupled          false; // tight coupling, at each time step, of
				   // neutronics, energy and thermal-mechanics.
				   // The coupling is regulated by the two 
				   // parameters below
    timeStepResidual        0.00005; // max allowed residual at each time step
    maxTimeStepIterations   6; // for transient.
			       // Maximum iterations in the sub-loop between  
			       // neutronics, energy and thermal-mechanics.
			       // The sub-loop is performed at the last outer 
			       // corrector (see flag above)

// ************************************************************************* //
