/*--------------------------------*- C++ -*----------------------------------*\
|       ______          _   __           ______                               |
|      / ____/  ___    / | / /          / ____/  ____   ____ _   ____ ___     |
|     / / __   / _ \  /  |/ /  ______  / /_     / __ \ / __ `/  / __ `__ \    |
|    / /_/ /  /  __/ / /|  /  /_____/ / __/    / /_/ // /_/ /  / / / / / /    |
|    \____/   \___/ /_/ |_/          /_/       \____/ \__,_/  /_/ /_/ /_/     |
|    Copyright (C) 2015 - 2022 EPFL                                           |
\*---------------------------------------------------------------------------*/
FoamFile
{
    version     2.0;
    format      ascii;
    class       dictionary;
    object      fvSchemes;
}
// * * * * * * * * * * * * * * * * * * * * * * * * * * * * * * * * * * * * * //

/*
ddtSchemes
{
    default         Euler;
}

gradSchemes
{
    default         Gauss linear;
}

divSchemes
{
    default         Gauss linear;
    div(phi,U)      Gauss upwind;
    div(phi,K)      Gauss linear;
    div(phi,h)      Gauss upwind;
    div(phi,k)      Gauss upwind;
    div(phi,epsilon) Gauss upwind;
    div(phi,R)      Gauss upwind;
    div(R)          Gauss linear;
    div((muEff*dev2(T(grad(U))))) Gauss linear;
}

laplacianSchemes
{
    default  Gauss linear limited corrected 0.333;
    laplacian(muEff,U) Gauss linear limited corrected 0.333;
    laplacian(Dp,p_rgh) Gauss linear limited corrected 0.333;
    laplacian(alphaEff,h) Gauss linear limited corrected 0.333;
    laplacian(DkEff,k) Gauss linear limited corrected 0.333;
    laplacian(DepsilonEff,epsilon) Gauss linear limited corrected 0.333;
    laplacian(DREff,R) Gauss linear limited corrected 0.333;
}

interpolationSchemes
{
    default         linear;
}

snGradSchemes
{
    default         limited corrected 0.333;
}

fluxRequired
{
    default         no;
    p_rgh;
}
*/

ddtSchemes
{
    default         Euler;
}

gradSchemes
{
    default         Gauss linear;
}

divSchemes
{
    default                                 none;

    div(phi,alpha)                          Gauss vanLeer;
    div(phir,alpha)                         Gauss vanLeer;

    div(phi,alpha.liquid)                   Gauss vanLeer;
    div(phir,alpha.vapour,alpha.liquid)     Gauss vanLeer;
    div(phir,alpha.structure,alpha.liquid)  Gauss vanLeer;
    div(phi,alpha.vapour)                   Gauss vanLeer;
    div(phir,alpha.liquid,alpha.vapour)     Gauss vanLeer;
    div(phir,alpha.structure,alpha.vapour)  Gauss vanLeer;
    
    "div\(phi.*,U.*\)"                      Gauss upwind;
    "div(alphaRhoPhi,U)"                    Gauss upwind;
    "div(alphaRhoPhiNu,U)"                  Gauss linear;
    "div(alphaRhoPhi,K)"                    Gauss upwind;
    
    "div\(alphaRhoPhi.*,k.*\)"              Gauss upwind;
    "div\(alphaRhoPhi.*,epsilon.*\)"        Gauss upwind;
    
    "div\(alphaRhoPhi.*,(h|e).*\)"          Gauss upwind;
}

laplacianSchemes
{
    default         Gauss linear uncorrected;
}

interpolationSchemes
{
    default         linear;
}

snGradSchemes
{
    default         uncorrected;
}

// ************************************************************************* //
