/*--------------------------------*- C++ -*----------------------------------*\
|       ______          _   __           ______                               |
|      / ____/  ___    / | / /          / ____/  ____   ____ _   ____ ___     |
|     / / __   / _ \  /  |/ /  ______  / /_     / __ \ / __ `/  / __ `__ \    |
|    / /_/ /  /  __/ / /|  /  /_____/ / __/    / /_/ // /_/ /  / / / / / /    |
|    \____/   \___/ /_/ |_/          /_/       \____/ \__,_/  /_/ /_/ /_/     |
|    Copyright (C) 2015 - 2022 EPFL                                           |
\*---------------------------------------------------------------------------*/
FoamFile
{
    version     2.0;
    format      ascii;
    class       dictionary;
    object      setFieldsDict;
}
// * * * * * * * * * * * * * * * * * * * * * * * * * * * * * * * * * * * * * //

defaultFieldValues
(
    volScalarFieldValue powerDensity.nuclearFuelPin 0
);

regions
(
    zoneToCell
    {
        zone            "innerCore";
        fieldValues
        (
            volScalarFieldValue powerDensity.nuclearFuelPin 7.474871169e8
        );
    }

    zoneToCell
    {
        zone            "outerCore";
        fieldValues
        (
            volScalarFieldValue powerDensity.nuclearFuelPin 5.583084308e8
        );
    }
);

// ************************************************************************* //
