/*--------------------------------*- C++ -*----------------------------------*\
|       ______          _   __           ______                               |
|      / ____/  ___    / | / /          / ____/  ____   ____ _   ____ ___     |
|     / / __   / _ \  /  |/ /  ______  / /_     / __ \ / __ `/  / __ `__ \    |
|    / /_/ /  /  __/ / /|  /  /_____/ / __/    / /_/ // /_/ /  / / / / / /    |
|    \____/   \___/ /_/ |_/          /_/       \____/ \__,_/  /_/ /_/ /_/     |
|    Copyright (C) 2015 - 2022 EPFL                                           |
\*---------------------------------------------------------------------------*/
FoamFile
{
    version     2.0;
    format      ascii;
    class       dictionary;
    object      msfr_t_res;
}
 energyGroups 6 ; 

 precGroups 8 ; 
 TfuelRef 9.000000e+02 ; 
 TfuelPerturbed 1.500000e+03 ; 
zones 
 ( 
hx       
{ 
 IV nonuniform List<scalar> 6 (3.988410e-08 7.534390e-08 2.704790e-07 6.649750e-07 1.805400e-06 6.507980e-06  );
 D nonuniform List<scalar> 6 (2.372560e-02 1.578820e-02 1.002270e-02 1.208460e-02 1.145170e-02 1.090920e-02  );
 nuSigmaEff nonuniform List<scalar> 6 (5.755790e-01 3.754490e-01 4.108360e-01 6.229530e-01 1.455370e+00 4.718810e+00  );
 sigmaPow nonuniform List<scalar> 6 (6.724778e-12 4.680206e-12 5.246818e-12 7.979649e-12 1.865038e-11 6.051075e-11  );
 scatteringMatrixP0  6  6 ( 
 ( 1.312580e+01  5.840810e+00  6.705100e-01  4.143700e-03  3.155400e-04  3.828890e-06 )
  ( 0.000000e+00  2.149740e+01  3.723940e+00  6.097290e-03  4.405410e-04  2.316910e-06 )
  ( 0.000000e+00  0.000000e+00  3.415090e+01  1.416520e+00  2.863910e-03  2.514240e-05 )
  ( 0.000000e+00  0.000000e+00  0.000000e+00  2.658770e+01  1.286310e+00  0.000000e+00 )
  ( 0.000000e+00  0.000000e+00  0.000000e+00  0.000000e+00  2.832330e+01  1.957000e-01 )
  ( 0.000000e+00  0.000000e+00  0.000000e+00  0.000000e+00  0.000000e+00  2.771810e+01 )
 );
 sigmaDisapp nonuniform List<scalar> 6 (6.900200e+00 3.955400e+00 1.774400e+00 1.983500e+00 1.664500e+00 3.731000e+00  );
 chiPrompt nonuniform List<scalar> 6 (3.622200e-01 5.174810e-01 1.188120e-01 1.332280e-03 1.522850e-04 1.557980e-06  );
 chiDelayed nonuniform List<scalar> 6 (3.372660e-03 3.690890e-01 5.993440e-01 2.431480e-02 3.788250e-03 9.070150e-05  );
 Beta nonuniform List<scalar> 8 (2.167320e-04 4.374290e-04 3.832040e-04 5.866200e-04 9.274450e-04 1.415290e-04 2.007940e-04 4.086550e-05  );
 lambda nonuniform List<scalar> 8 (1.246670e-02 2.829170e-02 4.252440e-02 1.330420e-01 2.924670e-01 6.664880e-01 1.634780e+00 3.192030e+00  );
 discFactor nonuniform List<scalar> 6 (1 1 1 1 1 1  );
 integralFlux nonuniform List<scalar> 6 (1.000000e+00 1.000000e+00 1.000000e+00 1.000000e+00 1.000000e+00 1.000000e+00  );
 } 
intermed 
{ 
 IV nonuniform List<scalar> 6 (3.988410e-08 7.534390e-08 2.704790e-07 6.649750e-07 1.805400e-06 6.507980e-06  );
 D nonuniform List<scalar> 6 (2.372560e-02 1.578820e-02 1.002270e-02 1.208460e-02 1.145170e-02 1.090920e-02  );
 nuSigmaEff nonuniform List<scalar> 6 (5.755790e-01 3.754490e-01 4.108360e-01 6.229530e-01 1.455370e+00 4.718810e+00  );
 sigmaPow nonuniform List<scalar> 6 (6.724778e-12 4.680206e-12 5.246818e-12 7.979649e-12 1.865038e-11 6.051075e-11  );
 scatteringMatrixP0  6  6 ( 
 ( 1.312580e+01  5.840810e+00  6.705100e-01  4.143700e-03  3.155400e-04  3.828890e-06 )
  ( 0.000000e+00  2.149740e+01  3.723940e+00  6.097290e-03  4.405410e-04  2.316910e-06 )
  ( 0.000000e+00  0.000000e+00  3.415090e+01  1.416520e+00  2.863910e-03  2.514240e-05 )
  ( 0.000000e+00  0.000000e+00  0.000000e+00  2.658770e+01  1.286310e+00  0.000000e+00 )
  ( 0.000000e+00  0.000000e+00  0.000000e+00  0.000000e+00  2.832330e+01  1.957000e-01 )
  ( 0.000000e+00  0.000000e+00  0.000000e+00  0.000000e+00  0.000000e+00  2.771810e+01 )
 );
 sigmaDisapp nonuniform List<scalar> 6 (6.900200e+00 3.955400e+00 1.774400e+00 1.983500e+00 1.664500e+00 3.731000e+00  );
 chiPrompt nonuniform List<scalar> 6 (3.622200e-01 5.174810e-01 1.188120e-01 1.332280e-03 1.522850e-04 1.557980e-06  );
 chiDelayed nonuniform List<scalar> 6 (3.372660e-03 3.690890e-01 5.993440e-01 2.431480e-02 3.788250e-03 9.070150e-05  );
 Beta nonuniform List<scalar> 8 (2.167320e-04 4.374290e-04 3.832040e-04 5.866200e-04 9.274450e-04 1.415290e-04 2.007940e-04 4.086550e-05  );
 lambda nonuniform List<scalar> 8 (1.246670e-02 2.829170e-02 4.252440e-02 1.330420e-01 2.924670e-01 6.664880e-01 1.634780e+00 3.192030e+00  );
 discFactor nonuniform List<scalar> 6 (1 1 1 1 1 1  );
 integralFlux nonuniform List<scalar> 6 (1.000000e+00 1.000000e+00 1.000000e+00 1.000000e+00 1.000000e+00 1.000000e+00  );
 } 
pump     
{ 
 IV nonuniform List<scalar> 6 (3.988410e-08 7.534390e-08 2.704790e-07 6.649750e-07 1.805400e-06 6.507980e-06  );
 D nonuniform List<scalar> 6 (2.372560e-02 1.578820e-02 1.002270e-02 1.208460e-02 1.145170e-02 1.090920e-02  );
 nuSigmaEff nonuniform List<scalar> 6 (5.755790e-01 3.754490e-01 4.108360e-01 6.229530e-01 1.455370e+00 4.718810e+00  );
 sigmaPow nonuniform List<scalar> 6 (6.724778e-12 4.680206e-12 5.246818e-12 7.979649e-12 1.865038e-11 6.051075e-11  );
 scatteringMatrixP0 6  6 ( 
 ( 1.312580e+01  5.840810e+00  6.705100e-01  4.143700e-03  3.155400e-04  3.828890e-06 )
  ( 0.000000e+00  2.149740e+01  3.723940e+00  6.097290e-03  4.405410e-04  2.316910e-06 )
  ( 0.000000e+00  0.000000e+00  3.415090e+01  1.416520e+00  2.863910e-03  2.514240e-05 )
  ( 0.000000e+00  0.000000e+00  0.000000e+00  2.658770e+01  1.286310e+00  0.000000e+00 )
  ( 0.000000e+00  0.000000e+00  0.000000e+00  0.000000e+00  2.832330e+01  1.957000e-01 )
  ( 0.000000e+00  0.000000e+00  0.000000e+00  0.000000e+00  0.000000e+00  2.771810e+01 )
 );
 sigmaDisapp nonuniform List<scalar> 6 (6.900200e+00 3.955400e+00 1.774400e+00 1.983500e+00 1.664500e+00 3.731000e+00  );
 chiPrompt nonuniform List<scalar> 6 (3.622200e-01 5.174810e-01 1.188120e-01 1.332280e-03 1.522850e-04 1.557980e-06  );
 chiDelayed nonuniform List<scalar> 6 (3.372660e-03 3.690890e-01 5.993440e-01 2.431480e-02 3.788250e-03 9.070150e-05  );
 Beta nonuniform List<scalar> 8 (2.167320e-04 4.374290e-04 3.832040e-04 5.866200e-04 9.274450e-04 1.415290e-04 2.007940e-04 4.086550e-05  );
 lambda nonuniform List<scalar> 8 (1.246670e-02 2.829170e-02 4.252440e-02 1.330420e-01 2.924670e-01 6.664880e-01 1.634780e+00 3.192030e+00  );
 discFactor nonuniform List<scalar> 6 (1 1 1 1 1 1  );
 integralFlux nonuniform List<scalar> 6 (1.000000e+00 1.000000e+00 1.000000e+00 1.000000e+00 1.000000e+00 1.000000e+00  );
 } 
main_fd  
{ 
 IV nonuniform List<scalar> 6 (3.988410e-08 7.534390e-08 2.704790e-07 6.649750e-07 1.805400e-06 6.507980e-06  );
 D nonuniform List<scalar> 6 (2.372560e-02 1.578820e-02 1.002270e-02 1.208460e-02 1.145170e-02 1.090920e-02  );
 nuSigmaEff nonuniform List<scalar> 6 (5.755790e-01 3.754490e-01 4.108360e-01 6.229530e-01 1.455370e+00 4.718810e+00  );
 sigmaPow nonuniform List<scalar> 6 (6.724778e-12 4.680206e-12 5.246818e-12 7.979649e-12 1.865038e-11 6.051075e-11  );
 scatteringMatrixP0  6  6 ( 
 ( 1.312580e+01  5.840810e+00  6.705100e-01  4.143700e-03  3.155400e-04  3.828890e-06 )
  ( 0.000000e+00  2.149740e+01  3.723940e+00  6.097290e-03  4.405410e-04  2.316910e-06 )
  ( 0.000000e+00  0.000000e+00  3.415090e+01  1.416520e+00  2.863910e-03  2.514240e-05 )
  ( 0.000000e+00  0.000000e+00  0.000000e+00  2.658770e+01  1.286310e+00  0.000000e+00 )
  ( 0.000000e+00  0.000000e+00  0.000000e+00  0.000000e+00  2.832330e+01  1.957000e-01 )
  ( 0.000000e+00  0.000000e+00  0.000000e+00  0.000000e+00  0.000000e+00  2.771810e+01 )
 );
 sigmaDisapp nonuniform List<scalar> 6 (6.900200e+00 3.955400e+00 1.774400e+00 1.983500e+00 1.664500e+00 3.731000e+00  );
 chiPrompt nonuniform List<scalar> 6 (3.622200e-01 5.174810e-01 1.188120e-01 1.332280e-03 1.522850e-04 1.557980e-06  );
 chiDelayed nonuniform List<scalar> 6 (3.372660e-03 3.690890e-01 5.993440e-01 2.431480e-02 3.788250e-03 9.070150e-05  );
 Beta nonuniform List<scalar> 8 (2.167320e-04 4.374290e-04 3.832040e-04 5.866200e-04 9.274450e-04 1.415290e-04 2.007940e-04 4.086550e-05  );
 lambda nonuniform List<scalar> 8 (1.246670e-02 2.829170e-02 4.252440e-02 1.330420e-01 2.924670e-01 6.664880e-01 1.634780e+00 3.192030e+00  );
 discFactor nonuniform List<scalar> 6 (1 1 1 1 1 1  );
 integralFlux nonuniform List<scalar> 6 (1.000000e+00 1.000000e+00 1.000000e+00 1.000000e+00 1.000000e+00 1.000000e+00  );
 } 

 ); 
