/*--------------------------------*- C++ -*----------------------------------*\
|       ______          _   __           ______                               |
|      / ____/  ___    / | / /          / ____/  ____   ____ _   ____ ___     |
|     / / __   / _ \  /  |/ /  ______  / /_     / __ \ / __ `/  / __ `__ \    |
|    / /_/ /  /  __/ / /|  /  /_____/ / __/    / /_/ // /_/ /  / / / / / /    |
|    \____/   \___/ /_/ |_/          /_/       \____/ \__,_/  /_/ /_/ /_/     |
|    Copyright (C) 2015 - 2022 EPFL                                           |
\*---------------------------------------------------------------------------*/
FoamFile
{
    version     2.0;
    format      ascii;
    class       dictionary;
    object      msfr_n_res;
}
fastNeutrons            true; // if true interpolates cross section with logarithmic temp for fuel (otherwise, square root)

adjustDiscFactors       false;

//groupsWoDF              (0 1 2 3 4 5 6 7 8 9 14 15 16 17 18 19 20 21 22 23);

useGivenDiscFactors     false;

//doNotParametrize        ();

//- Relevant only for pointKinetics

promptGenerationTime 1.26e-06; 

Beta  (2.114580e-04 4.231390e-04 3.737000e-04 5.789020e-04 8.929690e-04 1.426090e-04 1.926010e-04 3.738980e-05  );

lambda  (1.246670e-02 2.829170e-02 4.252440e-02 1.330420e-01 2.924670e-01 6.664880e-01 1.634780e+00 3.099610e+00  );

feedbackCoeffFastDoppler 0.037772632;

feedbackCoeffTFuel 0;

feedbackCoeffTClad 0;

feedbackCoeffTCool 0;

feedbackCoeffRhoCool 4.55597e-05;

feedbackCoeffTStruct 0;

absoluteDrivelineExpansionCoeff 0;

controlRodReactivityMap ( ( 0.1 -0.01 ) ( 0 0 ) ( -0.1 0.01 ) );

initPrecursorsLiquidFuel true;

 energyGroups 6 ; 

 precGroups 8 ; 

zones 
( 
hx       
{ 
 fuelFraction 1.000000e+00 ; 
 IV nonuniform List<scalar> 6 (3.988170e-08 7.534280e-08 2.704870e-07 6.649970e-07 1.821890e-06 6.581960e-06  );
 D nonuniform List<scalar> 6 (2.372010e-02 1.578890e-02 1.002350e-02 1.208420e-02 1.153360e-02 1.103830e-02  );
 nuSigmaEff nonuniform List<scalar> 6 (5.755480e-01 3.754540e-01 4.108380e-01 6.229680e-01 1.466770e+00 4.758780e+00  );
 sigmaPow nonuniform List<scalar> 6 (6.724365e-12 4.680294e-12 5.246877e-12 7.979881e-12 1.879635e-11 6.102401e-11  );
 scatteringMatrixP0  6  6 ( 
 ( 1.312560e+01  5.838320e+00  6.724490e-01  4.118070e-03  3.011400e-04  2.296820e-06 )
  ( 0.000000e+00  2.149700e+01  3.723990e+00  6.078690e-03  4.411220e-04  3.081830e-06 )
  ( 0.000000e+00  0.000000e+00  3.414890e+01  1.416480e+00  2.841550e-03  2.636100e-05 )
  ( 0.000000e+00  0.000000e+00  0.000000e+00  2.658780e+01  1.286940e+00  0.000000e+00 )
  ( 0.000000e+00  0.000000e+00  0.000000e+00  0.000000e+00  2.814060e+01  2.109190e-01 )
  ( 0.000000e+00  0.000000e+00  0.000000e+00  0.000000e+00  0.000000e+00  2.751690e+01 )
 );
 sigmaDisapp nonuniform List<scalar> 6 (6.899700e+00 3.955500e+00 1.774100e+00 1.983400e+00 1.637700e+00 3.566300e+00  );
 chiPrompt nonuniform List<scalar> 6 (3.621770e-01 5.174630e-01 1.188660e-01 1.337660e-03 1.553520e-04 1.397960e-06  );
 chiDelayed nonuniform List<scalar> 6 (3.616550e-03 3.713560e-01 5.972450e-01 2.413250e-02 3.584380e-03 6.577530e-05  );
 Beta nonuniform List<scalar> 8 (2.114580e-04 4.231390e-04 3.737000e-04 5.789020e-04 8.929690e-04 1.426090e-04 1.926010e-04 3.738980e-05  );
 lambda nonuniform List<scalar> 8 (1.246670e-02 2.829170e-02 4.252440e-02 1.330420e-01 2.924670e-01 6.664880e-01 1.634780e+00 3.099610e+00  );
 discFactor nonuniform List<scalar> 6 (1 1 1 1 1 1  );
 integralFlux nonuniform List<scalar> 6 (1.000000e+00 1.000000e+00 1.000000e+00 1.000000e+00 1.000000e+00 1.000000e+00  );
 } 
intermed 
{ 
 fuelFraction 1.000000e+00 ; 
 IV nonuniform List<scalar> 6 (3.988170e-08 7.534280e-08 2.704870e-07 6.649970e-07 1.821890e-06 6.581960e-06  );
 D nonuniform List<scalar> 6 (2.372010e-02 1.578890e-02 1.002350e-02 1.208420e-02 1.153360e-02 1.103830e-02  );
 nuSigmaEff nonuniform List<scalar> 6 (5.755480e-01 3.754540e-01 4.108380e-01 6.229680e-01 1.466770e+00 4.758780e+00  );
 sigmaPow nonuniform List<scalar> 6 (6.724365e-12 4.680294e-12 5.246877e-12 7.979881e-12 1.879635e-11 6.102401e-11  );
 scatteringMatrixP0  6  6 ( 
 ( 1.312560e+01  5.838320e+00  6.724490e-01  4.118070e-03  3.011400e-04  2.296820e-06 )
  ( 0.000000e+00  2.149700e+01  3.723990e+00  6.078690e-03  4.411220e-04  3.081830e-06 )
  ( 0.000000e+00  0.000000e+00  3.414890e+01  1.416480e+00  2.841550e-03  2.636100e-05 )
  ( 0.000000e+00  0.000000e+00  0.000000e+00  2.658780e+01  1.286940e+00  0.000000e+00 )
  ( 0.000000e+00  0.000000e+00  0.000000e+00  0.000000e+00  2.814060e+01  2.109190e-01 )
  ( 0.000000e+00  0.000000e+00  0.000000e+00  0.000000e+00  0.000000e+00  2.751690e+01 )
 );
 sigmaDisapp nonuniform List<scalar> 6 (6.899700e+00 3.955500e+00 1.774100e+00 1.983400e+00 1.637700e+00 3.566300e+00  );
 chiPrompt nonuniform List<scalar> 6 (3.621770e-01 5.174630e-01 1.188660e-01 1.337660e-03 1.553520e-04 1.397960e-06  );
 chiDelayed nonuniform List<scalar> 6 (3.616550e-03 3.713560e-01 5.972450e-01 2.413250e-02 3.584380e-03 6.577530e-05  );
 Beta nonuniform List<scalar> 8 (2.114580e-04 4.231390e-04 3.737000e-04 5.789020e-04 8.929690e-04 1.426090e-04 1.926010e-04 3.738980e-05  );
 lambda nonuniform List<scalar> 8 (1.246670e-02 2.829170e-02 4.252440e-02 1.330420e-01 2.924670e-01 6.664880e-01 1.634780e+00 3.099610e+00  );
 discFactor nonuniform List<scalar> 6 (1 1 1 1 1 1  );
 integralFlux nonuniform List<scalar> 6 (1.000000e+00 1.000000e+00 1.000000e+00 1.000000e+00 1.000000e+00 1.000000e+00  );
 }
main_fd  
{ 
 fuelFraction 1.000000e+00 ; 
 IV nonuniform List<scalar> 6 (3.988170e-08 7.534280e-08 2.704870e-07 6.649970e-07 1.821890e-06 6.581960e-06  );
 D nonuniform List<scalar> 6 (2.372010e-02 1.578890e-02 1.002350e-02 1.208420e-02 1.153360e-02 1.103830e-02  );
 nuSigmaEff nonuniform List<scalar> 6 (5.755480e-01 3.754540e-01 4.108380e-01 6.229680e-01 1.466770e+00 4.758780e+00  );
 sigmaPow nonuniform List<scalar> 6 (6.724365e-12 4.680294e-12 5.246877e-12 7.979881e-12 1.879635e-11 6.102401e-11  );
 scatteringMatrixP0  6  6 ( 
 ( 1.312560e+01  5.838320e+00  6.724490e-01  4.118070e-03  3.011400e-04  2.296820e-06 )
  ( 0.000000e+00  2.149700e+01  3.723990e+00  6.078690e-03  4.411220e-04  3.081830e-06 )
  ( 0.000000e+00  0.000000e+00  3.414890e+01  1.416480e+00  2.841550e-03  2.636100e-05 )
  ( 0.000000e+00  0.000000e+00  0.000000e+00  2.658780e+01  1.286940e+00  0.000000e+00 )
  ( 0.000000e+00  0.000000e+00  0.000000e+00  0.000000e+00  2.814060e+01  2.109190e-01 )
  ( 0.000000e+00  0.000000e+00  0.000000e+00  0.000000e+00  0.000000e+00  2.751690e+01 )
 );
 sigmaDisapp nonuniform List<scalar> 6 (6.899700e+00 3.955500e+00 1.774100e+00 1.983400e+00 1.637700e+00 3.566300e+00  );
 chiPrompt nonuniform List<scalar> 6 (3.621770e-01 5.174630e-01 1.188660e-01 1.337660e-03 1.553520e-04 1.397960e-06  );
 chiDelayed nonuniform List<scalar> 6 (3.616550e-03 3.713560e-01 5.972450e-01 2.413250e-02 3.584380e-03 6.577530e-05  );
 Beta nonuniform List<scalar> 8 (2.114580e-04 4.231390e-04 3.737000e-04 5.789020e-04 8.929690e-04 1.426090e-04 1.926010e-04 3.738980e-05  );
 lambda nonuniform List<scalar> 8 (1.246670e-02 2.829170e-02 4.252440e-02 1.330420e-01 2.924670e-01 6.664880e-01 1.634780e+00 3.099610e+00  );
 discFactor nonuniform List<scalar> 6 (1 1 1 1 1 1  );
 integralFlux nonuniform List<scalar> 6 (1.000000e+00 1.000000e+00 1.000000e+00 1.000000e+00 1.000000e+00 1.000000e+00  );
 } 
pump     
{ 
 fuelFraction 1.000000e+00 ; 
 IV nonuniform List<scalar> 6 (3.988170e-08 7.534280e-08 2.704870e-07 6.649970e-07 1.821890e-06 6.581960e-06  );
 D nonuniform List<scalar> 6 (2.372010e-02 1.578890e-02 1.002350e-02 1.208420e-02 1.153360e-02 1.103830e-02  );
 nuSigmaEff nonuniform List<scalar> 6 (5.755480e-01 3.754540e-01 4.108380e-01 6.229680e-01 1.466770e+00 4.758780e+00  );
 sigmaPow nonuniform List<scalar> 6 (6.724365e-12 4.680294e-12 5.246877e-12 7.979881e-12 1.879635e-11 6.102401e-11  );
 scatteringMatrixP0  6  6 ( 
 ( 1.312560e+01  5.838320e+00  6.724490e-01  4.118070e-03  3.011400e-04  2.296820e-06 )
  ( 0.000000e+00  2.149700e+01  3.723990e+00  6.078690e-03  4.411220e-04  3.081830e-06 )
  ( 0.000000e+00  0.000000e+00  3.414890e+01  1.416480e+00  2.841550e-03  2.636100e-05 )
  ( 0.000000e+00  0.000000e+00  0.000000e+00  2.658780e+01  1.286940e+00  0.000000e+00 )
  ( 0.000000e+00  0.000000e+00  0.000000e+00  0.000000e+00  2.814060e+01  2.109190e-01 )
  ( 0.000000e+00  0.000000e+00  0.000000e+00  0.000000e+00  0.000000e+00  2.751690e+01 )
 );
 sigmaDisapp nonuniform List<scalar> 6 (6.899700e+00 3.955500e+00 1.774100e+00 1.983400e+00 1.637700e+00 3.566300e+00  );
 chiPrompt nonuniform List<scalar> 6 (3.621770e-01 5.174630e-01 1.188660e-01 1.337660e-03 1.553520e-04 1.397960e-06  );
 chiDelayed nonuniform List<scalar> 6 (3.616550e-03 3.713560e-01 5.972450e-01 2.413250e-02 3.584380e-03 6.577530e-05  );
 Beta nonuniform List<scalar> 8 (2.114580e-04 4.231390e-04 3.737000e-04 5.789020e-04 8.929690e-04 1.426090e-04 1.926010e-04 3.738980e-05  );
 lambda nonuniform List<scalar> 8 (1.246670e-02 2.829170e-02 4.252440e-02 1.330420e-01 2.924670e-01 6.664880e-01 1.634780e+00 3.099610e+00  );
 discFactor nonuniform List<scalar> 6 (1 1 1 1 1 1  );
 integralFlux nonuniform List<scalar> 6 (1.000000e+00 1.000000e+00 1.000000e+00 1.000000e+00 1.000000e+00 1.000000e+00  );
 } 

); 
