/*--------------------------------*- C++ -*----------------------------------*\
| =========                 |                                                 |
| \\      /  F ield         | OpenFOAM: The Open Source CFD Toolbox           |
|  \\    /   O peration     | Version:  2212                                  |
|   \\  /    A nd           | Website:  www.openfoam.com                      |
|    \\/     M anipulation  |                                                 |
\*---------------------------------------------------------------------------*/
FoamFile
{
    version     2.0;
    format      ascii;
    arch        "LSB;label=32;scalar=64";
    class       polyBoundaryMesh;
    location    "200/fluidRegionNB/polyMesh";
    object      boundary;
}
// * * * * * * * * * * * * * * * * * * * * * * * * * * * * * * * * * * * * * //

5
(
    top
    {
        type            patch;
        physicalType    patch;
        nFaces          1014;
        startFace       56256;
    }
    bottom
    {
        type            patch;
        physicalType    patch;
        nFaces          1014;
        startFace       57270;
    }
    walls
    {
        type            patch;
        physicalType    patch;
        nFaces          2070;
        startFace       58284;
    }
    baffle0
    {
        type            patch;
        inGroups        3(wall mappedPatch baffleFaces);
        nFaces          0;
        startFace       60354;
    }
    baffle1
    {
        type            patch;
        inGroups        3(wall mappedPatch baffleFaces);
        nFaces          0;
        startFace       60354;
    }
)

// ************************************************************************* //
