/*--------------------------------*- C++ -*----------------------------------*\
|       ______          _   __           ______                               |
|      / ____/  ___    / | / /          / ____/  ____   ____ _   ____ ___     |
|     / / __   / _ \  /  |/ /  ______  / /_     / __ \ / __ `/  / __ `__ \    |
|    / /_/ /  /  __/ / /|  /  /_____/ / __/    / /_/ // /_/ /  / / / / / /    |
|    \____/   \___/ /_/ |_/          /_/       \____/ \__,_/  /_/ /_/ /_/     |
|    Copyright (C) 2015 - 2022 EPFL                                           |
\*---------------------------------------------------------------------------*/
FoamFile
{
    version     2.0;
    format      ascii;
    class       dictionary;
    object      thermophysicalProperties;
}
// * * * * * * * * * * * * * * * * * * * * * * * * * * * * * * * * * * * * * //

thermoType
{
    type            heRhoThermo;
    mixture         pureMixture;
    transport       polynomial;
    thermo          hPolynomial;
    equationOfState icoPolynomial;
    specie          specie;
    energy          sensibleEnthalpy;
}

mixture
{
    specie
    {
        nMoles          1;
        molWeight       22.9898;
    }
    equationOfState
    {
        //rhoCoeffs<8>       (1004.2957 -0.206854 -1.730055e-05 0 0 0 0 0);
        rhoCoeffs<8> (860.0 0 0 0 0 0 0 0);
    }
    thermodynamics
    {
        CpCoeffs<8>        (1583 -0.6322 2.254e-4 7.515e-8 0 0 0 0);
        Hf             0;
	   Sf             0;
    }
    transport
    {
        muCoeffs<8>        (4.47177e-03 -2.45709e-05 6.42693e-08 -9.48578e-11 8.14986e-14 -3.82e-17 7.60382e-21 0);
//        PrCoeffs<8>        (5.90749e-02 -2.84412e-04 6.54215e-07 -8.06811e-10 5.37116e-13 -1.73328e-16 2.69286e-20 0);
	   kappaCoeffs<8>     (124.67 -0.11381 5.5226e-05 -1.1842e-08 0 0 0 0);
    }
}

// ************************************************************************* //
