/*--------------------------------*- C++ -*----------------------------------*\
|       ______          _   __           ______                               |
|      / ____/  ___    / | / /          / ____/  ____   ____ _   ____ ___     |
|     / / __   / _ \  /  |/ /  ______  / /_     / __ \ / __ `/  / __ `__ \    |
|    / /_/ /  /  __/ / /|  /  /_____/ / __/    / /_/ // /_/ /  / / / / / /    |
|    \____/   \___/ /_/ |_/          /_/       \____/ \__,_/  /_/ /_/ /_/     |
|    Copyright (C) 2015 - 2022 EPFL                                           |
\*---------------------------------------------------------------------------*/
FoamFile
{
    version     2.0;
    format      ascii;
    class       dictionary;
    object      controlDict;
}
// * * * * * * * * * * * * * * * * * * * * * * * * * * * * * * * * * * * * * //

application     FFSEulerFoam;

startFrom       startTime;

startTime       0;

stopAt          endTime;//

endTime         0.8;

deltaT          0.01;

writeControl    runTime;

writeInterval   0.02;

purgeWrite      0;

writeFormat     ascii;

writePrecision  6;

writeCompression off;

timeFormat      general;

timePrecision   6;

runTimeModifiable true;

solveFluidMechanics true;

solveEnergy     false;

solveNeutronics false;

solveThermoMechanics false;

//- Time step control

adjustTimeStep      true;

maxDeltaT           0.02;

maxCo               1;

maxCoTwoPhase       1;

// ************************************************************************* //
