/*--------------------------------*- C++ -*----------------------------------*\
|       ______          _   __           ______                               |
|      / ____/  ___    / | / /          / ____/  ____   ____ _   ____ ___     |
|     / / __   / _ \  /  |/ /  ______  / /_     / __ \ / __ `/  / __ `__ \    |
|    / /_/ /  /  __/ / /|  /  /_____/ / __/    / /_/ // /_/ /  / / / / / /    |
|    \____/   \___/ /_/ |_/          /_/       \____/ \__,_/  /_/ /_/ /_/     |
|    Copyright (C) 2015 - 2022 EPFL                                           |
\*---------------------------------------------------------------------------*/
FoamFile
{
    version     2.0;
    format      ascii;
    class       dictionary;
    object      esfr_core__res;
}
discreteDirectionsOct 16;

 directionUxOct nonuniform List<scalar> 16 (
1.22785291159728E-01
5.31419325021509E-01
1.03129501638901E-01
2.35702260395515E-01
8.40807829938193E-01
9.84808379609774E-01
8.40807829938210E-01
9.42809041582063E-01
1.03129501638887E-01
5.31419325021508E-01
1.22785291159756E-01
2.35702260395515E-01
6.86947072008541E-01
2.37081084268253E-01
6.86947072008531E-01
5.77350269189625E-01
);
 directionUyOct nonuniform List<scalar> 16 (
1.22785291159728E-01
1.03129501638898E-01
5.31419325021504E-01
2.35702260395515E-01
1.03129501638887E-01
1.22785291159753E-01
5.31419325021502E-01
2.35702260395515E-01
8.40807829938193E-01
8.40807829938206E-01
9.84808379609773E-01
9.42809041582063E-01
6.86947072008541E-01
6.86947072008531E-01
2.37081084268254E-01
5.77350269189625E-01
);
 directionUzOct nonuniform List<scalar> 16 (
9.84808379609780E-01
8.40807829938206E-01
8.40807829938209E-01
9.42809041582063E-01
5.31419325021532E-01
1.22785291159753E-01
1.03129501638902E-01
2.35702260395515E-01
5.31419325021531E-01
1.03129501638899E-01
1.22785291159756E-01
2.35702260395515E-01
2.37081084268193E-01
6.86947072008531E-01
6.86947072008531E-01
5.77350269189625E-01
);
 directionWeightsOct nonuniform List<scalar> 16 (
5.26559082615718E-02
9.95720041972116E-02
9.95720041972139E-02
8.80369927980968E-02
9.95720041972128E-02
5.26559082615709E-02
9.95720041972133E-02
8.80369927981024E-02
9.95720041972128E-02
9.95720041972108E-02
5.26559082615713E-02
8.80369927981055E-02
1.32024927825519E-01
1.32024927825525E-01
1.32024927825526E-01
1.55210814955923E-01
);
