/*--------------------------------*- C++ -*----------------------------------*\
|       ______          _   __           ______                               |
|      / ____/  ___    / | / /          / ____/  ____   ____ _   ____ ___     |
|     / / __   / _ \  /  |/ /  ______  / /_     / __ \ / __ `/  / __ `__ \    |
|    / /_/ /  /  __/ / /|  /  /_____/ / __/    / /_/ // /_/ /  / / / / / /    |
|    \____/   \___/ /_/ |_/          /_/       \____/ \__,_/  /_/ /_/ /_/     |
|    Copyright (C) 2015 - 2022 EPFL                                           |
\*---------------------------------------------------------------------------*/
FoamFile
{
    version     2.0;
    format      ascii;
    class       polyBoundaryMesh;
    object      boundary;
}
// * * * * * * * * * * * * * * * * * * * * * * * * * * * * * * * * * * * * * //

4
(
    top
    {
        type            cyclic;
        inGroups        1(cyclic);
        nFaces          1;
        startFace       639;
        matchTolerance  0.0001;
        transform       unknown;
        neighbourPatch  bottom;
    }
    bottom
    {
        type            cyclic;
        inGroups        1(cyclic);
        nFaces          1;
        startFace       640;
        matchTolerance  0.0001;
        transform       unknown;
        neighbourPatch  top;
    }
    walls
    {
        type            wall;
        inGroups        1(wall);
        nFaces          1280;
        startFace       641;
    }
    defaultFaces
    {
        type            empty;
        inGroups        1(empty);
        nFaces          1280;
        startFace       1921;
    }
)

// ************************************************************************* //
