/*--------------------------------*- C++ -*----------------------------------*\
|       ______          _   __           ______                               |
|      / ____/  ___    / | / /          / ____/  ____   ____ _   ____ ___     |
|     / / __   / _ \  /  |/ /  ______  / /_     / __ \ / __ `/  / __ `__ \    |
|    / /_/ /  /  __/ / /|  /  /_____/ / __/    / /_/ // /_/ /  / / / / / /    |
|    \____/   \___/ /_/ |_/          /_/       \____/ \__,_/  /_/ /_/ /_/     |
|    Copyright (C) 2015 - 2022 EPFL                                           |
\*---------------------------------------------------------------------------*/
FoamFile
{
    version     2.0;
    format      ascii;
    class       dictionary;
    object      controlDict;
}
// * * * * * * * * * * * * * * * * * * * * * * * * * * * * * * * * * * * * * //

application     GeN-Foam;

startFrom       startTime;

startTime       -2;

stopAt          endTime;

endTime         18;

deltaT          0.0001;

writeControl    runTime;

writeInterval   0.2;

purgeWrite      0;

writeFormat     ascii;

writePrecision  6;

writeCompression off;

timeFormat      general;

timePrecision   6;

runTimeModifiable true;

//- Physics to Solve

solveFluidMechanics true;

solveEnergy     true;
includeKineticEnergy false;

solveNeutronics false;

solveThermalMechanics false;

//- Global options

liquidFuel false;

//- Time step control options

adjustTimeStep  true;

maxDeltaT       0.01;

minDeltaT       2.5e-5;

maxCo           10;

maxCoTwoPhase   0.5;

//- Function Objects for tracking variable evolution

functions
{
    inletValues
    {
        type            surfaceFieldValue;
        region          fluidRegion;
        libs            ( "libfieldFunctionObjects.so" );
        log             true;
        writeFields     false;
        regionType      patch;
        name            inlet;
        operation       average;
        fields          ( p_rgh U.liquid );
    }
    maxValues
    {
        type            volFieldValue;
        region          fluidRegion;
        libs            ( "libfieldFunctionObjects.so" );
        log             true;
        writeFields     false;
        operation       max;
        fields          ( p T.liquid T.vapour T.interface T.activeStructure T.passiveStructure );
    }
    averageValues
    {
        type            volFieldValue;
        region          fluidRegion;
        libs            ( "libfieldFunctionObjects.so" );
        log             true;
        writeFields     false;
        operation       volAverage;
        fields          ( alpha.vapour T.activeStructure);
    }
    Z545Values
    {
        type            volFieldValue;
        region          fluidRegion;
        libs            ( "libfieldFunctionObjects.so" );
        log             true;
        writeFields     false;
        regionType      cellSet;
        name            Z545;
        operation       volAverage;
        fields          ( p p_rgh alpha.vapour T.activeStructure T.liquid );
    }
    Z779Values
    {
        type            volFieldValue;
        region          fluidRegion;
        libs            ( "libfieldFunctionObjects.so" );
        log             true;
        writeFields     false;
        regionType      cellSet;
        name            Z779;
        operation       volAverage;
        fields          ( p p_rgh alpha.vapour T.activeStructure T.liquid );
    }
    Z870Values
    {
        type            volFieldValue;
        region          fluidRegion;
        libs            ( "libfieldFunctionObjects.so" );
        log             true;
        writeFields     false;
        regionType      cellSet;
        name            Z870;
        operation       volAverage;
        fields          ( p p_rgh alpha.vapour T.activeStructure T.liquid );
    }
    Z1128Values
    {
        type            volFieldValue;
        region          fluidRegion;
        libs            ( "libfieldFunctionObjects.so" );
        log             true;
        writeFields     false;
        regionType      cellSet;
        name            Z1128;
        operation       volAverage;
        fields          ( p p_rgh alpha.vapour T.passiveStructure T.liquid );
    }
    boilingRegionSize
    {
        type            fieldExtents;
        region          fluidRegion;
        libs            ( "libfieldFunctionObjects.so" );
        log             yes;
        writeToFile     false;
        fields          ( alpha.vapour dmdt.liquid.vapour );
        threshold       0.01;
        patches         ( );
    }
}

// ************************************************************************* //
