/*--------------------------------*- C++ -*----------------------------------*\
|       ______          _   __           ______                               |
|      / ____/  ___    / | / /          / ____/  ____   ____ _   ____ ___     |
|     / / __   / _ \  /  |/ /  ______  / /_     / __ \ / __ `/  / __ `__ \    |
|    / /_/ /  /  __/ / /|  /  /_____/ / __/    / /_/ // /_/ /  / / / / / /    |
|    \____/   \___/ /_/ |_/          /_/       \____/ \__,_/  /_/ /_/ /_/     |
|    Copyright (C) 2015 - 2022 EPFL                                           |
\*---------------------------------------------------------------------------*/
FoamFile
{
    version     2.0;
    format      ascii;
    class       dictionary;
    object      CRmove;
}
//- In case one wants to move control rods, they should define here the control
//  rods they want to move. These must must be aligned with z axis

zones 
( 
    /*
    controlRodCellZoneName
    {
        startTime   200.5;
        endTime     201.7;
        speed       0.0; //- Positive is entering the core (neg Z)
        initialDistanceFromMeshCR 0.0;  //- Distance from the position defined 
                                        //  in the mesh (postive towards the 
                                        //  core) 
        followerName    followerCellZoneName; 
    } 
    */
); 
