/*--------------------------------*- C++ -*----------------------------------*\
|       ______          _   __           ______                               |
|      / ____/  ___    / | / /          / ____/  ____   ____ _   ____ ___     |
|     / / __   / _ \  /  |/ /  ______  / /_     / __ \ / __ `/  / __ `__ \    |
|    / /_/ /  /  __/ / /|  /  /_____/ / __/    / /_/ // /_/ /  / / / / / /    |
|    \____/   \___/ /_/ |_/          /_/       \____/ \__,_/  /_/ /_/ /_/     |
|    Copyright (C) 2015 - 2022 EPFL                                           |
\*---------------------------------------------------------------------------*/
FoamFile
{
    version     2.0;
    format      ascii;
    class       dictionary;
    object      nuclearData;
}
energyGroups   24;

precGroups    6; // for the diffusion calculation!

//- Point Kinetics data
fastNeutrons true;

promptGenerationTime 5.0e-7;

Beta
(
    6.15E-5
    5.66E-4
    2.18E-4
    4.67E-4
    1.04E-3
    3.48E-4
    3.50E-4
    1.58E-4
);

lambda
(
    1.25E-2
    2.83E-2
    4.25E-2
    1.33E-1
    2.92E-1
    6.66E-1
    1.63
    3.55
);

//- Representative of fuel axial expansion
feedbackCoeffTFuel          -4.0E-06;

//- Representative of in-assebly structure density change 
//  (i.e. cladding AND wrapper wire)
feedbackCoeffTClad          -1.0E-06;

//-
feedbackCoeffTCool          0;

//-
feedbackCoeffRhoCool        1.5E-05;

//-
feedbackCoeffFastDoppler    5.0E-03;

//- Representative of structure radial expansion
feedbackCoeffTStruct        -1.0E-05;

fuelFeedbackZones
(
    "DRI_IFU"
    "DRI_OFU"
);

coolantFeedbackZones
(
    "DRI_GPL"
    "DRI_IFU"
    "DRI_OFU"
);

structuresFeedbackZones
(
    //"DRI_IPA"
    "DRI_GPL"
    "DRI_IFU"
    "DRI_OFU"
);

//- For GEM modelling

//- Reference sodium height in GEM
GEMSodiumLevelRef 2.216;

//- Face zone over which to track changes in integral coolant volume flow
GEMFlowFaceZone "coreMiddleCut";

//- Map of GEM sodium level (wrt reference) vs reactivity
GEMReactivityMap
(
    (0.2046     0e-5)
    (0.1024     0e-5)
    (0.0046     0e-5)
    (0          0e-5)
    (-0.0954    -1e-5)
    (-0.1954    -5e-5)
    (-0.2954    -20e-5)
    (-0.3954    -45e-5)
    (-0.4943    -76e-5)
    (-0.5954    -120e-5)
    (-0.6954    -170e-5)
    (-0.7954    -230e-5)
    (-0.8954    -285e-5)
    (-0.9954    -340e-5)
    (-1.0968    -385e-5)
    (-1.1954    -420e-5)
    (-1.2954    -440e-5)
    (-1.3954    -458e-5)
    (-1.4954    -462e-5)
    (-1.5954    -464e-5)
    (-2.216     -467e-5)
);

drivelineFeedbackZones
(
    "DRI_GPL"
);

//- In m/K
absoluteDrivelineExpansionCoeff 0.00007;

//- CR insertion/driveline expansion (in m) vs reactivity
controlRodReactivityMap
(
    (-0.1113    1000e-5)
    (-0.0613    600e-5)
    (-0.0113    100e-5)
    (0           0)
    (0.0387     -400e-5)
    (0.0887     -1000e-5)
    (0.1387     -1600e-5)
);

//- End of pointKinetics data

//- Diffusion data

/*
    crossSection dictionary generated by DYN3D2GeNFoamXS
    11-09-2019 11:38:11
*/

zones
(
    DRI_GPL
    {
        fuelFraction 1;

        sigmaDisapp nonuniform List<scalar> 24 
        (
            3.9763745530000003
            4.031196920819999
            3.7819255386900004
            3.1455503433860006
            2.645541087491
            1.9600913510420004
            1.3698710628454998
            1.2102645521083002
            1.5018878766972998
            1.1646790578864101
            1.4333190718820001
            1.7037729739999998
            2.1099624999999995
            2.0203685370699995
            2.3064686452675995
            3.7967090980308
            4.9891328900000005
            13.5671634
            2.4218547
            2.2551173
            1.8510545999999999
            3.0478458
            1.7296732000000001
            0.3025923
        );

        nuSigmaEff nonuniform List<scalar> 24 
        (
            0.0
            0.0
            0.0
            0.0
            0.0
            0.0
            0.0
            0.0
            0.0
            0.0
            0.0
            0.0
            0.0
            0.0
            0.0
            0.0
            0.0
            0.0
            0.0
            0.0
            0.0
            0.0
            0.0
            0.0
        );

        sigmaPow nonuniform List<scalar> 24 
        (
            0.0
            0.0
            0.0
            0.0
            0.0
            0.0
            0.0
            0.0
            0.0
            0.0
            0.0
            0.0
            0.0
            0.0
            0.0
            0.0
            0.0
            0.0
            0.0
            0.0
            0.0
            0.0
            0.0
            0.0
        );

        scatteringMatrixP0 24 24 
        (
            (3.555344 0.6020774 0.6386661 0.8047133 0.6539025 0.4100824 0.2311306 0.1232651 0.0654542 0.0318387 0.015148350000000001 0.008248420000000001 0.002851531 0.001217378 0.00097643 0.0002919179 0.0002354914 0.0001545916 0.0 0.0001589431 0.0 0.0 0.0 0.0)
            (0.0 4.788853 0.9862093000000001 0.9775291 0.7857014000000001 0.4852106 0.2488765 0.1214707 0.05791536 0.02862723 0.014433729999999999 0.006672232 0.0039322310000000004 0.001424797 0.0008754015000000001 0.0004541129 0.0002820775 0.00013406370000000002 7.628331000000001e-05 0.00011430859999999999 4.3426830000000004e-05 1.903028e-05 1.4336200000000002e-05 0.0)
            (0.0 0.0 5.83275 1.279513 0.872444 0.7423201 0.41199260000000004 0.181757 0.08934763999999999 0.03930227 0.01863543 0.009216237 0.004799863 0.002029992 0.001037575 0.0005523979 0.0002943105 0.0001636649 0.0001072265 5.875647e-05 3.568178e-05 1.364883e-05 2.211684e-05 1.2627969999999998e-05)
            (0.0 0.0 0.0 6.818683 2.057319 0.5044169000000001 0.24119190000000001 0.148496 0.07816033 0.0396228 0.017300470000000002 0.007158283 0.0027583490000000002 0.00105708 0.000457617 0.0001991982 8.05266e-05 4.234876e-05 1.7256e-05 1.152054e-05 6.584113e-06 3.694312e-06 2.056522e-06 1.639339e-06)
            (0.0 0.0 0.0 0.0 7.200372 1.635265 0.6882842 0.1590588 0.06905243 0.03681014 0.02066902 0.01224242 0.0064980229999999995 0.002742778 0.001071594 0.0003963824 0.0001548215 6.140521e-05 2.446929e-05 1.12136e-05 5.095236e-06 2.54432e-06 1.021914e-06 1.529021e-06)
            (0.0 0.0 0.0 0.0 0.0 8.48033 1.308553 0.3206544 0.1637129 0.07649608000000001 0.03492828 0.016466770000000002 0.007470949 0.0053838409999999995 0.008403335 0.005119350999999999 0.001219045 0.00042341309999999996 0.0002052149 8.538051e-05 3.549699e-05 1.4250329999999998e-05 5.126418e-06 3.227794e-06)
            (0.0 0.0 0.0 0.0 0.0 0.0 10.44196 1.191371 0.1006222 0.05041095 0.00935796 0.0019987909999999998 0.0007373249 0.00019495870000000003 0.00010569400000000001 4.347844e-05 2.185819e-05 1.149183e-05 5.217329e-06 2.613889e-06 1.150479e-06 4.202796e-07 2.079952e-07 1.058137e-07)
            (0.0 0.0 0.0 0.0 0.0 0.0 0.0 10.86798 1.1865560000000002 0.00443819 0.0016252030000000002 0.0005790017 0.001155905 0.0003781197 0.00010903430000000001 4.55711e-05 1.80312e-05 7.4537249999999995e-06 2.9004e-06 1.139572e-06 3.101417e-07 1.022696e-07 0.0 0.0)
            (0.0 0.0 0.0 0.0 0.0 0.0 0.0 0.0 11.42155 1.478604 0.0033895310000000003 0.0013252749999999999 0.00017374319999999998 8.44112e-05 3.6762e-05 1.482081e-05 5.947348e-06 1.8631569999999999e-06 1.238414e-06 2.645683e-07 0.0 0.0 0.0 0.0)
            (0.0 0.0 0.0 0.0 0.0 0.0 0.0 0.0 0.0 11.41849 1.142208 0.001395666 0.0005765356000000001 0.0001848286 6.298588e-05 4.728839e-05 1.7860479999999998e-05 4.937996000000001e-06 8.611504000000001e-07 7.015848999999999e-07 7.947224e-08 1.562297e-07 7.796803e-08 7.853514e-08)
            (0.0 0.0 0.0 0.0 0.0 0.0 0.0 0.0 0.0 0.0 14.338119999999998 1.404257 0.0005158111 0.0002566723 0.00014966129999999998 3.1377910000000004e-05 1.809489e-05 8.454364e-06 1.020018e-06 0.0 0.0 0.0 0.0 0.0)
            (0.0 0.0 0.0 0.0 0.0 0.0 0.0 0.0 0.0 0.0 0.0 15.88813 1.678224 0.000149824 0.0 0.0 0.0 0.0 0.0 0.0 0.0 0.0 0.0 0.0)
            (0.0 0.0 0.0 0.0 0.0 0.0 0.0 0.0 0.0 0.0 0.0 0.0 23.40427 2.0209319999999997 0.04100206 0.0 0.0 0.0 0.0 0.0 0.0 0.0 0.0 0.0)
            (0.0 0.0 0.0 0.0 0.0 0.0 0.0 0.0 0.0 0.0 0.0 0.0 0.0 17.83195 1.9628329999999998 0.015940870000000003 0.005296272 0.0018273279999999998 0.0005760776 0.000210665 1.0794470000000001e-05 0.0 0.0 0.0)
            (0.0 0.0 0.0 0.0 0.0 0.0 0.0 0.0 0.0 0.0 0.0 0.0 0.0 0.0 25.472879999999996 2.248598 2.469179e-06 5.692486e-07 0.0 2.2961659999999998e-05 0.0001559516 8.499885000000001e-05 2.9596330000000002e-05 1.74484e-05)
            (0.0 0.0 0.0 0.0 0.0 0.0 0.0 0.0 0.0 0.0 0.0 0.0 0.0 0.0 0.0 40.64119 3.718068 6.359934e-07 3.169585e-07 3.1560569999999997e-07 3.194732e-07 0.0 0.0 0.0)
            (0.0 0.0 0.0 0.0 0.0 0.0 0.0 0.0 0.0 0.0 0.0 0.0 0.0 0.0 0.0 0.0 45.03323 4.918355 0.0 0.0 0.0 0.0 0.0 0.0)
            (0.0 0.0 0.0 0.0 0.0 0.0 0.0 0.0 0.0 0.0 0.0 0.0 0.0 0.0 0.0 0.0 0.0 86.23527 13.42774 0.0 0.0 0.0 0.0 0.0)
            (0.0 0.0 0.0 0.0 0.0 0.0 0.0 0.0 0.0 0.0 0.0 0.0 0.0 0.0 0.0 0.0 0.0 0.0 28.31976 2.27657 0.0 0.0 0.0 0.0)
            (0.0 0.0 0.0 0.0 0.0 0.0 0.0 0.0 0.0 0.0 0.0 0.0 0.0 0.0 0.0 0.0 0.0 0.0 0.0 26.47384 1.884951 0.0 0.0 0.0)
            (0.0 0.0 0.0 0.0 0.0 0.0 0.0 0.0 0.0 0.0 0.0 0.0 0.0 0.0 0.0 0.0 0.0 0.0 0.0 0.0 26.33466 1.7365229999999998 0.0 0.0)
            (0.0 0.0 0.0 0.0 0.0 0.0 0.0 0.0 0.0 0.0 0.0 0.0 0.0 0.0 0.0 0.0 0.0 0.0 0.0 0.0 0.0 39.61673 2.703141 0.0)
            (0.0 0.0 0.0 0.0 0.0 0.0 0.0 0.0 0.0 0.0 0.0 0.0 0.0 0.0 0.0 0.0 0.0 0.0 0.0 0.0 0.0 0.0 28.90879 1.6013860000000002)
            (0.0 0.0 0.0 0.0 0.0 0.0 0.0 0.0 0.0 0.0 0.0 0.0 0.0 0.0 0.0 0.0 0.0 0.0 0.0 0.0 0.0 0.0 0.0 29.80215)
        );

        discFactor nonuniform List<scalar> 24 
        (
            1.0
            1.0
            1.0
            1.0
            1.0
            1.0
            1.0
            1.0
            1.0
            1.0
            1.0
            1.0
            1.0
            1.0
            1.0
            1.0
            1.0
            1.0
            1.0
            1.0
            1.0
            1.0
            1.0
            1.0
        );

        chiPrompt nonuniform List<scalar> 24 
        (
            0.0
            0.0
            0.0
            0.0
            0.0
            0.0
            0.0
            0.0
            0.0
            0.0
            0.0
            0.0
            0.0
            0.0
            0.0
            0.0
            0.0
            0.0
            0.0
            0.0
            0.0
            0.0
            0.0
            0.0
        );

        chiDelayed nonuniform List<scalar> 24 
        (
            0.0
            0.0
            0.0
            0.0
            0.0
            0.0
            0.0
            0.0
            0.0
            0.0
            0.0
            0.0
            0.0
            0.0
            0.0
            0.0
            0.0
            0.0
            0.0
            0.0
            0.0
            0.0
            0.0
            0.0
        );

        IV nonuniform List<scalar> 24 
        (
            4.0291900000000004e-07
            4.0291900000000004e-07
            4.0291900000000004e-07
            4.0291900000000004e-07
            4.0291900000000004e-07
            4.0291900000000004e-07
            4.0291900000000004e-07
            4.0291900000000004e-07
            4.0291900000000004e-07
            4.0291900000000004e-07
            4.0291900000000004e-07
            4.0291900000000004e-07
            4.0291900000000004e-07
            4.0291900000000004e-07
            4.0291900000000004e-07
            4.0291900000000004e-07
            4.0291900000000004e-07
            4.0291900000000004e-07
            4.0291900000000004e-07
            4.0291900000000004e-07
            4.0291900000000004e-07
            4.0291900000000004e-07
            4.0291900000000004e-07
            4.0291900000000004e-07
        );

        lambda nonuniform List<scalar> 6 
        (
            0.0125371
            0.0300828
            0.109879
            0.325484
            1.3036
            9.51817
        );

        Beta nonuniform List<scalar> 6 
        (
            7.2315e-05
            0.000609661
            0.000471181
            0.00118907
            0.000445487
            9.58515e-05
        );

        D nonuniform List<scalar> 24 
        (
            0.05117375030605741
            0.04643779160233931
            0.04321682500835965
            0.04093324630057384
            0.042603424371227556
            0.04198406467367732
            0.03557009987534843
            0.032648921852920725
            0.02907394254452713
            0.029221441162321397
            0.02204371081187852
            0.020316012548099824
            0.016422441607254822
            0.019774033970867702
            0.012458019596251793
            0.007695597351210268
            0.00721031303746595
            0.004422268630511612
            0.01209187297224807
            0.012327499922154919
            0.012713202826915918
            0.009279523470190195
            0.012571165114288687
            0.011855227251078819
        );

        integralFlux nonuniform List<scalar> 24 
        (
            1
            1
            1
            1
            1
            1
            1
            1
            1
            1
            1
            1
            1
            1
            1
            1
            1
            1
            1
            1
            1
            1
            1
            1
        );

    }

    coreOutlet
    {
        fuelFraction 1;

        sigmaDisapp nonuniform List<scalar> 24 
        (
            3.9763745530000003
            4.031196920819999
            3.7819255386900004
            3.1455503433860006
            2.645541087491
            1.9600913510420004
            1.3698710628454998
            1.2102645521083002
            1.5018878766972998
            1.1646790578864101
            1.4333190718820001
            1.7037729739999998
            2.1099624999999995
            2.0203685370699995
            2.3064686452675995
            3.7967090980308
            4.9891328900000005
            13.5671634
            2.4218547
            2.2551173
            1.8510545999999999
            3.0478458
            1.7296732000000001
            0.3025923
        );

        nuSigmaEff nonuniform List<scalar> 24 
        (
            0.0
            0.0
            0.0
            0.0
            0.0
            0.0
            0.0
            0.0
            0.0
            0.0
            0.0
            0.0
            0.0
            0.0
            0.0
            0.0
            0.0
            0.0
            0.0
            0.0
            0.0
            0.0
            0.0
            0.0
        );

        sigmaPow nonuniform List<scalar> 24 
        (
            0.0
            0.0
            0.0
            0.0
            0.0
            0.0
            0.0
            0.0
            0.0
            0.0
            0.0
            0.0
            0.0
            0.0
            0.0
            0.0
            0.0
            0.0
            0.0
            0.0
            0.0
            0.0
            0.0
            0.0
        );

        scatteringMatrixP0 24 24 
        (
            (3.555344 0.6020774 0.6386661 0.8047133 0.6539025 0.4100824 0.2311306 0.1232651 0.0654542 0.0318387 0.015148350000000001 0.008248420000000001 0.002851531 0.001217378 0.00097643 0.0002919179 0.0002354914 0.0001545916 0.0 0.0001589431 0.0 0.0 0.0 0.0)
            (0.0 4.788853 0.9862093000000001 0.9775291 0.7857014000000001 0.4852106 0.2488765 0.1214707 0.05791536 0.02862723 0.014433729999999999 0.006672232 0.0039322310000000004 0.001424797 0.0008754015000000001 0.0004541129 0.0002820775 0.00013406370000000002 7.628331000000001e-05 0.00011430859999999999 4.3426830000000004e-05 1.903028e-05 1.4336200000000002e-05 0.0)
            (0.0 0.0 5.83275 1.279513 0.872444 0.7423201 0.41199260000000004 0.181757 0.08934763999999999 0.03930227 0.01863543 0.009216237 0.004799863 0.002029992 0.001037575 0.0005523979 0.0002943105 0.0001636649 0.0001072265 5.875647e-05 3.568178e-05 1.364883e-05 2.211684e-05 1.2627969999999998e-05)
            (0.0 0.0 0.0 6.818683 2.057319 0.5044169000000001 0.24119190000000001 0.148496 0.07816033 0.0396228 0.017300470000000002 0.007158283 0.0027583490000000002 0.00105708 0.000457617 0.0001991982 8.05266e-05 4.234876e-05 1.7256e-05 1.152054e-05 6.584113e-06 3.694312e-06 2.056522e-06 1.639339e-06)
            (0.0 0.0 0.0 0.0 7.200372 1.635265 0.6882842 0.1590588 0.06905243 0.03681014 0.02066902 0.01224242 0.0064980229999999995 0.002742778 0.001071594 0.0003963824 0.0001548215 6.140521e-05 2.446929e-05 1.12136e-05 5.095236e-06 2.54432e-06 1.021914e-06 1.529021e-06)
            (0.0 0.0 0.0 0.0 0.0 8.48033 1.308553 0.3206544 0.1637129 0.07649608000000001 0.03492828 0.016466770000000002 0.007470949 0.0053838409999999995 0.008403335 0.005119350999999999 0.001219045 0.00042341309999999996 0.0002052149 8.538051e-05 3.549699e-05 1.4250329999999998e-05 5.126418e-06 3.227794e-06)
            (0.0 0.0 0.0 0.0 0.0 0.0 10.44196 1.191371 0.1006222 0.05041095 0.00935796 0.0019987909999999998 0.0007373249 0.00019495870000000003 0.00010569400000000001 4.347844e-05 2.185819e-05 1.149183e-05 5.217329e-06 2.613889e-06 1.150479e-06 4.202796e-07 2.079952e-07 1.058137e-07)
            (0.0 0.0 0.0 0.0 0.0 0.0 0.0 10.86798 1.1865560000000002 0.00443819 0.0016252030000000002 0.0005790017 0.001155905 0.0003781197 0.00010903430000000001 4.55711e-05 1.80312e-05 7.4537249999999995e-06 2.9004e-06 1.139572e-06 3.101417e-07 1.022696e-07 0.0 0.0)
            (0.0 0.0 0.0 0.0 0.0 0.0 0.0 0.0 11.42155 1.478604 0.0033895310000000003 0.0013252749999999999 0.00017374319999999998 8.44112e-05 3.6762e-05 1.482081e-05 5.947348e-06 1.8631569999999999e-06 1.238414e-06 2.645683e-07 0.0 0.0 0.0 0.0)
            (0.0 0.0 0.0 0.0 0.0 0.0 0.0 0.0 0.0 11.41849 1.142208 0.001395666 0.0005765356000000001 0.0001848286 6.298588e-05 4.728839e-05 1.7860479999999998e-05 4.937996000000001e-06 8.611504000000001e-07 7.015848999999999e-07 7.947224e-08 1.562297e-07 7.796803e-08 7.853514e-08)
            (0.0 0.0 0.0 0.0 0.0 0.0 0.0 0.0 0.0 0.0 14.338119999999998 1.404257 0.0005158111 0.0002566723 0.00014966129999999998 3.1377910000000004e-05 1.809489e-05 8.454364e-06 1.020018e-06 0.0 0.0 0.0 0.0 0.0)
            (0.0 0.0 0.0 0.0 0.0 0.0 0.0 0.0 0.0 0.0 0.0 15.88813 1.678224 0.000149824 0.0 0.0 0.0 0.0 0.0 0.0 0.0 0.0 0.0 0.0)
            (0.0 0.0 0.0 0.0 0.0 0.0 0.0 0.0 0.0 0.0 0.0 0.0 23.40427 2.0209319999999997 0.04100206 0.0 0.0 0.0 0.0 0.0 0.0 0.0 0.0 0.0)
            (0.0 0.0 0.0 0.0 0.0 0.0 0.0 0.0 0.0 0.0 0.0 0.0 0.0 17.83195 1.9628329999999998 0.015940870000000003 0.005296272 0.0018273279999999998 0.0005760776 0.000210665 1.0794470000000001e-05 0.0 0.0 0.0)
            (0.0 0.0 0.0 0.0 0.0 0.0 0.0 0.0 0.0 0.0 0.0 0.0 0.0 0.0 25.472879999999996 2.248598 2.469179e-06 5.692486e-07 0.0 2.2961659999999998e-05 0.0001559516 8.499885000000001e-05 2.9596330000000002e-05 1.74484e-05)
            (0.0 0.0 0.0 0.0 0.0 0.0 0.0 0.0 0.0 0.0 0.0 0.0 0.0 0.0 0.0 40.64119 3.718068 6.359934e-07 3.169585e-07 3.1560569999999997e-07 3.194732e-07 0.0 0.0 0.0)
            (0.0 0.0 0.0 0.0 0.0 0.0 0.0 0.0 0.0 0.0 0.0 0.0 0.0 0.0 0.0 0.0 45.03323 4.918355 0.0 0.0 0.0 0.0 0.0 0.0)
            (0.0 0.0 0.0 0.0 0.0 0.0 0.0 0.0 0.0 0.0 0.0 0.0 0.0 0.0 0.0 0.0 0.0 86.23527 13.42774 0.0 0.0 0.0 0.0 0.0)
            (0.0 0.0 0.0 0.0 0.0 0.0 0.0 0.0 0.0 0.0 0.0 0.0 0.0 0.0 0.0 0.0 0.0 0.0 28.31976 2.27657 0.0 0.0 0.0 0.0)
            (0.0 0.0 0.0 0.0 0.0 0.0 0.0 0.0 0.0 0.0 0.0 0.0 0.0 0.0 0.0 0.0 0.0 0.0 0.0 26.47384 1.884951 0.0 0.0 0.0)
            (0.0 0.0 0.0 0.0 0.0 0.0 0.0 0.0 0.0 0.0 0.0 0.0 0.0 0.0 0.0 0.0 0.0 0.0 0.0 0.0 26.33466 1.7365229999999998 0.0 0.0)
            (0.0 0.0 0.0 0.0 0.0 0.0 0.0 0.0 0.0 0.0 0.0 0.0 0.0 0.0 0.0 0.0 0.0 0.0 0.0 0.0 0.0 39.61673 2.703141 0.0)
            (0.0 0.0 0.0 0.0 0.0 0.0 0.0 0.0 0.0 0.0 0.0 0.0 0.0 0.0 0.0 0.0 0.0 0.0 0.0 0.0 0.0 0.0 28.90879 1.6013860000000002)
            (0.0 0.0 0.0 0.0 0.0 0.0 0.0 0.0 0.0 0.0 0.0 0.0 0.0 0.0 0.0 0.0 0.0 0.0 0.0 0.0 0.0 0.0 0.0 29.80215)
        );

        discFactor nonuniform List<scalar> 24 
        (
            1.0
            1.0
            1.0
            1.0
            1.0
            1.0
            1.0
            1.0
            1.0
            1.0
            1.0
            1.0
            1.0
            1.0
            1.0
            1.0
            1.0
            1.0
            1.0
            1.0
            1.0
            1.0
            1.0
            1.0
        );

        chiPrompt nonuniform List<scalar> 24 
        (
            0.0
            0.0
            0.0
            0.0
            0.0
            0.0
            0.0
            0.0
            0.0
            0.0
            0.0
            0.0
            0.0
            0.0
            0.0
            0.0
            0.0
            0.0
            0.0
            0.0
            0.0
            0.0
            0.0
            0.0
        );

        chiDelayed nonuniform List<scalar> 24 
        (
            0.0
            0.0
            0.0
            0.0
            0.0
            0.0
            0.0
            0.0
            0.0
            0.0
            0.0
            0.0
            0.0
            0.0
            0.0
            0.0
            0.0
            0.0
            0.0
            0.0
            0.0
            0.0
            0.0
            0.0
        );

        IV nonuniform List<scalar> 24 
        (
            4.0291900000000004e-07
            4.0291900000000004e-07
            4.0291900000000004e-07
            4.0291900000000004e-07
            4.0291900000000004e-07
            4.0291900000000004e-07
            4.0291900000000004e-07
            4.0291900000000004e-07
            4.0291900000000004e-07
            4.0291900000000004e-07
            4.0291900000000004e-07
            4.0291900000000004e-07
            4.0291900000000004e-07
            4.0291900000000004e-07
            4.0291900000000004e-07
            4.0291900000000004e-07
            4.0291900000000004e-07
            4.0291900000000004e-07
            4.0291900000000004e-07
            4.0291900000000004e-07
            4.0291900000000004e-07
            4.0291900000000004e-07
            4.0291900000000004e-07
            4.0291900000000004e-07
        );

        lambda nonuniform List<scalar> 6 
        (
            0.0125371
            0.0300828
            0.109879
            0.325484
            1.3036
            9.51817
        );

        Beta nonuniform List<scalar> 6 
        (
            7.2315e-05
            0.000609661
            0.000471181
            0.00118907
            0.000445487
            9.58515e-05
        );

        D nonuniform List<scalar> 24 
        (
            0.05117375030605741
            0.04643779160233931
            0.04321682500835965
            0.04093324630057384
            0.042603424371227556
            0.04198406467367732
            0.03557009987534843
            0.032648921852920725
            0.02907394254452713
            0.029221441162321397
            0.02204371081187852
            0.020316012548099824
            0.016422441607254822
            0.019774033970867702
            0.012458019596251793
            0.007695597351210268
            0.00721031303746595
            0.004422268630511612
            0.01209187297224807
            0.012327499922154919
            0.012713202826915918
            0.009279523470190195
            0.012571165114288687
            0.011855227251078819
        );

        integralFlux nonuniform List<scalar> 24 
        (
            1
            1
            1
            1
            1
            1
            1
            1
            1
            1
            1
            1
            1
            1
            1
            1
            1
            1
            1
            1
            1
            1
            1
            1
        );

    }

    RF8_USH
    {
        fuelFraction 1;

        sigmaDisapp nonuniform List<scalar> 24 
        (
            8.154012373269998
            8.714027066780003
            8.453060152029998
            7.000075430431001
            6.128408191677001
            3.420481879400001
            2.0598630047629993
            1.832989047148
            2.4283827960066002
            1.9272269279782002
            2.6651988968929996
            3.1046934539
            4.297538199999999
            3.82048594188
            4.971474077153899
            8.637586225197103
            7.3022295
            14.742790600000001
            5.1530809
            5.713768999999999
            4.9442495
            8.491263
            5.009904699999999
            0.9217447
        );

        nuSigmaEff nonuniform List<scalar> 24 
        (
            0.0
            0.0
            0.0
            0.0
            0.0
            0.0
            0.0
            0.0
            0.0
            0.0
            0.0
            0.0
            0.0
            0.0
            0.0
            0.0
            0.0
            0.0
            0.0
            0.0
            0.0
            0.0
            0.0
            0.0
        );

        sigmaPow nonuniform List<scalar> 24 
        (
            0.0
            0.0
            0.0
            0.0
            0.0
            0.0
            0.0
            0.0
            0.0
            0.0
            0.0
            0.0
            0.0
            0.0
            0.0
            0.0
            0.0
            0.0
            0.0
            0.0
            0.0
            0.0
            0.0
            0.0
        );

        scatteringMatrixP0 24 24 
        (
            (8.033735 1.1946210000000002 1.274642 1.575145 1.389602 0.9679172 0.5405745 0.2907437 0.14905649999999998 0.07667294 0.04047738 0.01724896 0.010312700000000001 0.004673437 0.00254667 0.0008499031 0.0003814515 0.000560204 0.00038357920000000006 0.0 9.304847e-05 0.0 0.0 0.0)
            (0.0 11.515640000000001 1.753675 2.1260600000000003 1.810963 1.1287369999999999 0.5973586000000001 0.290487 0.1440601 0.07105689999999999 0.03639984 0.01710961 0.00951212 0.003696548 0.002110749 0.001188181 0.0006456553 0.0004370077 0.000249155 0.00011673920000000001 9.168394000000001e-05 7.227308e-05 5.225508999999999e-05 4.574947e-05)
            (0.0 0.0 13.49443 2.5690049999999998 1.845026 1.763139 1.0341090000000002 0.46946410000000005 0.232126 0.10068570000000002 0.04913604 0.02372136 0.012350220000000002 0.005308035 0.0026259079999999997 0.001440432 0.0007420762999999999 0.0005146889 0.0002811316 0.000157441 0.00010782580000000001 6.124079999999999e-05 3.3471270000000004e-05 8.168135999999999e-05)
            (0.0 0.0 0.0 15.23466 4.301109 1.340935 0.5595840000000001 0.32452549999999997 0.1798498 0.09158493000000001 0.04041163 0.0174654 0.007041856 0.0027359759999999998 0.0012182380000000002 0.0005217533 0.0002204169 0.00013095820000000002 4.82902e-05 2.607751e-05 1.166763e-05 1.22156e-05 7.744171e-06 6.67692e-06)
            (0.0 0.0 0.0 0.0 15.69605 3.1852859999999996 1.996726 0.4667439 0.2045627 0.1106211 0.05959289 0.03539868 0.01861908 0.008041217 0.002996711 0.001039049 0.000404388 0.00016065650000000002 6.510163e-05 2.488704e-05 2.026407e-05 6.553048e-06 2.948048e-06 3.5963410000000003e-06)
            (0.0 0.0 0.0 0.0 0.0 17.99879 1.8091 0.5866761 0.5030416 0.24145529999999998 0.11139190000000002 0.05251053 0.022987 0.01646267 0.02381125 0.01465672 0.00343909 0.001152041 0.0005369721000000001 0.0002444144 0.00010456739999999999 4.616677e-05 1.767041e-05 1.0427319999999999e-05)
            (0.0 0.0 0.0 0.0 0.0 0.0 20.834410000000002 1.9409340000000002 0.040986419999999996 0.02353755 0.005701564 0.002390854 0.001053996 0.0005989573 0.00030957339999999997 0.0001326869 6.116263e-05 3.584542e-05 1.5735199999999998e-05 8.216944e-06 3.2597399999999997e-06 2.700529e-06 4.50184e-07 1.2325159999999999e-06)
            (0.0 0.0 0.0 0.0 0.0 0.0 0.0 24.72916 1.7671240000000001 0.01406159 0.004994096 0.001290823 0.0006601004 0.0002692036 7.990205e-05 3.5965059999999996e-05 1.492323e-05 8.288071e-06 2.396763e-06 6.558618e-07 4.3543060000000003e-07 2.171697e-07 1.1051190000000001e-07 0.0)
            (0.0 0.0 0.0 0.0 0.0 0.0 0.0 0.0 25.051099999999998 2.361939 0.01051286 0.00380396 0.0005768348 0.00024274280000000003 0.00013156289999999998 4.507973e-05 1.4931559999999998e-05 6.090438e-06 1.7717759999999999e-06 3.910369e-07 3.905179e-07 9.773829999999999e-08 2.927095e-07 0.0)
            (0.0 0.0 0.0 0.0 0.0 0.0 0.0 0.0 0.0 25.615320000000004 1.8644560000000001 0.00437563 0.001697557 0.0005241261 0.0001639967 0.00015771830000000002 5.0231830000000005e-05 1.150865e-05 1.648425e-06 2.074782e-06 1.126598e-06 5.195932e-07 0.0 0.0)
            (0.0 0.0 0.0 0.0 0.0 0.0 0.0 0.0 0.0 0.0 33.91545 2.581544 0.00145251 0.0007431066999999999 0.0005094657000000001 0.0001001188 5.933027000000001e-05 2.288271e-05 2.822713e-06 0.0 0.0 0.0 0.0 0.0)
            (0.0 0.0 0.0 0.0 0.0 0.0 0.0 0.0 0.0 0.0 0.0 37.86477 3.029741 0.0004419939 0.0 0.0 0.0 0.0 0.0 0.0 0.0 0.0 0.0 0.0)
            (0.0 0.0 0.0 0.0 0.0 0.0 0.0 0.0 0.0 0.0 0.0 0.0 55.6524 4.048951 0.1195165 0.0 0.0 0.0 0.0 0.0 0.0 0.0 0.0 0.0)
            (0.0 0.0 0.0 0.0 0.0 0.0 0.0 0.0 0.0 0.0 0.0 0.0 0.0 42.28809 3.643283 0.0530405 0.01554692 0.0048929559999999995 0.001399054 0.0004892927 2.591918e-05 0.0 0.0 0.0)
            (0.0 0.0 0.0 0.0 0.0 0.0 0.0 0.0 0.0 0.0 0.0 0.0 0.0 0.0 64.46736 4.80393 4.958669e-06 9.409448999999999e-07 0.0 5.35217e-05 0.0003872542 0.00020249829999999998 9.24967e-05 5.610664e-05)