/*--------------------------------*- C++ -*----------------------------------*\
|       ______          _   __           ______                               |
|      / ____/  ___    / | / /          / ____/  ____   ____ _   ____ ___     |
|     / / __   / _ \  /  |/ /  ______  / /_     / __ \ / __ `/  / __ `__ \    |
|    / /_/ /  /  __/ / /|  /  /_____/ / __/    / /_/ // /_/ /  / / / / / /    |
|    \____/   \___/ /_/ |_/          /_/       \____/ \__,_/  /_/ /_/ /_/     |
|    Copyright (C) 2015 - 2022 EPFL                                           |
\*---------------------------------------------------------------------------*/
FoamFile
{
    version     2.0;
    format      ascii;
    class       dictionary;
    object      multiply;
}
type    multiply;
         libs    ( "libfieldFunctionObjects.so" ); //(fieldFunctionObjects);
         // Mandatory (inherited) entry (runtime modifiable)
         fields  (p T);
         // Optional (inherited) entries
        result IVfluxAdjointFlux0;
        writeFields     false;
        scalingFactor   1.0;
        writePrecision  8;
        writeToFile     true;
        useUserTime     true;
        region          fluidRegion;
        enabled         true;
        log             true;
        timeStart       0;
        timeEnd         1000;
        executeControl  onEnd;
        executeInterval none;
        writeControl    onEnd;
       // writeInterval   ;
     
