/*--------------------------------*- C++ -*----------------------------------*\
|       ______          _   __           ______                               |
|      / ____/  ___    / | / /          / ____/  ____   ____ _   ____ ___     |
|     / / __   / _ \  /  |/ /  ______  / /_     / __ \ / __ `/  / __ `__ \    |
|    / /_/ /  /  __/ / /|  /  /_____/ / __/    / /_/ // /_/ /  / / / / / /    |
|    \____/   \___/ /_/ |_/          /_/       \____/ \__,_/  /_/ /_/ /_/     |
|    Copyright (C) 2015 - 2022 EPFL                                           |
\*---------------------------------------------------------------------------*/
FoamFile
{
    version     2.0;
    format      ascii;
    class       volScalarField;
    object      fuelDisp;
}
// * * * * * * * * * * * * * * * * * * * * * * * * * * * * * * * * * * * * * //

dimensions      [0 1 0 0 0 0 0];

internalField   uniform 0;

boundaryField
{

     "zeroDispl"
    {
        type            fixedValue;
        value           uniform 0;
    }
     "defaultFaces"
    {
        type            zeroGradient;
    }  
     "bottom"
    {
        type            fixedValue;
        value           uniform 0;
    }
     "top"
    {
        type            zeroGradient;
    }  
     "topCR"
    {
        type            zeroGradient;
    }  
     "bottomCR"
    {
        type            fixedValue;
        value           uniform 0;
    }  
}

// ************************************************************************* //
