/*--------------------------------*- C++ -*----------------------------------*\
|       ______          _   __           ______                               |
|      / ____/  ___    / | / /          / ____/  ____   ____ _   ____ ___     |
|     / / __   / _ \  /  |/ /  ______  / /_     / __ \ / __ `/  / __ `__ \    |
|    / /_/ /  /  __/ / /|  /  /_____/ / __/    / /_/ // /_/ /  / / / / / /    |
|    \____/   \___/ /_/ |_/          /_/       \____/ \__,_/  /_/ /_/ /_/     |
|    Copyright (C) 2015 - 2022 EPFL                                           |
\*---------------------------------------------------------------------------*/
FoamFile
{
    version     2.0;
    format      ascii;
    class       polyBoundaryMesh;
    object      boundary;
}
// * * * * * * * * * * * * * * * * * * * * * * * * * * * * * * * * * * * * * //

6
(
    top
    {
        type            patch;
        physicalType    patch;
        nFaces          906;
        startFace       56292;
    }
    topCR
    {
        type            patch;
        physicalType    patch;
        nFaces          108;
        startFace       57198;
    }
    bottom
    {
        type            patch;
        physicalType    patch;
        nFaces          900;
        startFace       57306;
    }
    bottomCR
    {
        type            patch;
        physicalType    patch;
        nFaces          108;
        startFace       58206;
    }
    zeroDispl
    {
        type            patch;
        physicalType    patch;
        nFaces          6;
        startFace       58314;
    }
    defaultFaces
    {
        type            patch;
        nFaces          2088;
        startFace       58320;
    }
)

// ************************************************************************* //
