/*--------------------------------*- C++ -*----------------------------------*\
|       ______          _   __           ______                               |
|      / ____/  ___    / | / /          / ____/  ____   ____ _   ____ ___     |
|     / / __   / _ \  /  |/ /  ______  / /_     / __ \ / __ `/  / __ `__ \    |
|    / /_/ /  /  __/ / /|  /  /_____/ / __/    / /_/ // /_/ /  / / / / / /    |
|    \____/   \___/ /_/ |_/          /_/       \____/ \__,_/  /_/ /_/ /_/     |
|    Copyright (C) 2015 - 2022 EPFL                                           |
\*---------------------------------------------------------------------------*/
FoamFile
{
    version     2.0;
    format      ascii;
    class       dictionary;
    object      esfr_core__res;
}
// * * * * * * * * * * * * * * * * * * * * * * * * * * * * * * * * * * * * * //

energyGroups 1 ;

precGroups 8 ;
rhoCoolRef 8.600000e+02 ;
rhoCoolPerturbed 5.000000e+02 ;

zones
(

	radialReflector
	{
		IV nonuniform List<scalar> 1 (3.141640e-06  );
		D nonuniform List<scalar> 1 (1.577380e-02  );
		nuSigmaEff nonuniform List<scalar> 1 (0.000000e+00  );
		sigmaPow nonuniform List<scalar> 1 (0.000000e+00  );
		scatteringMatrixP0  1  1 (
		( 3.809420e+01 )
		);
		sigmaDisapp nonuniform List<scalar> 1 (1.752000e-01  );
		chiPrompt nonuniform List<scalar> 1 (0.000000e+00  );
		chiDelayed nonuniform List<scalar> 1 (0.000000e+00  );
		Beta nonuniform List<scalar> 8 (7.741930e-05 7.168900e-04 2.864780e-04 6.869150e-04 1.465500e-03 6.574950e-04 5.508390e-04 2.702720e-04  );
		lambda nonuniform List<scalar> 8 (1.224420e-02 2.829170e-02 4.252440e-02 1.330420e-01 2.924670e-01 6.664880e-01 1.634780e+00 3.554600e+00  );
	}

	lowerGasPlenum
	{
		IV nonuniform List<scalar> 1 (3.726960e-06  );
		D nonuniform List<scalar> 1 (4.176910e-02  );
		nuSigmaEff nonuniform List<scalar> 1 (0.000000e+00  );
		sigmaPow nonuniform List<scalar> 1 (0.000000e+00  );
		scatteringMatrixP0  1  1 (
		( 1.199300e+01 )
		);
		sigmaDisapp nonuniform List<scalar> 1 (6.160000e-02  );
		chiPrompt nonuniform List<scalar> 1 (0.000000e+00  );
		chiDelayed nonuniform List<scalar> 1 (0.000000e+00  );
		Beta nonuniform List<scalar> 8 (7.741930e-05 7.168900e-04 2.864780e-04 6.869150e-04 1.465500e-03 6.574950e-04 5.508390e-04 2.702720e-04  );
		lambda nonuniform List<scalar> 8 (1.224420e-02 2.829170e-02 4.252440e-02 1.330420e-01 2.924670e-01 6.664880e-01 1.634780e+00 3.554600e+00  );
	}

	lowerReflector
	{
		IV nonuniform List<scalar> 1 (2.057240e-06  );
		D nonuniform List<scalar> 1 (1.762250e-02  );
		nuSigmaEff nonuniform List<scalar> 1 (0.000000e+00  );
		sigmaPow nonuniform List<scalar> 1 (0.000000e+00  );
		scatteringMatrixP0  1  1 (
		( 3.359380e+01 )
		);
		sigmaDisapp nonuniform List<scalar> 1 (1.297000e-01  );
		chiPrompt nonuniform List<scalar> 1 (0.000000e+00  );
		chiDelayed nonuniform List<scalar> 1 (0.000000e+00  );
		Beta nonuniform List<scalar> 8 (7.741930e-05 7.168900e-04 2.864780e-04 6.869150e-04 1.465500e-03 6.574950e-04 5.508390e-04 2.702720e-04  );
		lambda nonuniform List<scalar> 8 (1.224420e-02 2.829170e-02 4.252440e-02 1.330420e-01 2.924670e-01 6.664880e-01 1.634780e+00 3.554600e+00  );
	}

	innerCore
	{
		IV nonuniform List<scalar> 1 (3.605950e-07  );
		D nonuniform List<scalar> 1 (1.414120e-02  );
		nuSigmaEff nonuniform List<scalar> 1 (6.934980e-01  );
		sigmaPow nonuniform List<scalar> 1 (7.9091799e-12 ); //4.936522e+01
		scatteringMatrixP0  1  1 (
		( 2.922240e+01 )
		);
		sigmaDisapp nonuniform List<scalar> 1 (5.999000e-01  );
		chiPrompt nonuniform List<scalar> 1 (1.000000e+00  );
		chiDelayed nonuniform List<scalar> 1 (1.000000e+00  );
		Beta nonuniform List<scalar> 8 (7.741930e-05 7.168900e-04 2.864780e-04 6.869150e-04 1.465500e-03 6.574950e-04 5.508390e-04 2.702720e-04  );
		lambda nonuniform List<scalar> 8 (1.224420e-02 2.829170e-02 4.252440e-02 1.330420e-01 2.924670e-01 6.664880e-01 1.634780e+00 3.554600e+00  );
	}

	outerCore
	{
		IV nonuniform List<scalar> 1 (3.494470e-07  );
		D nonuniform List<scalar> 1 (1.435600e-02  );
		nuSigmaEff nonuniform List<scalar> 1 (7.958270e-01  );
		sigmaPow nonuniform List<scalar> 1 (9.0537812e-12 ); //5.650926e+01
		scatteringMatrixP0  1  1 (
		( 2.889750e+01 )
		);
		sigmaDisapp nonuniform List<scalar> 1 (6.274000e-01  );
		chiPrompt nonuniform List<scalar> 1 (1.000000e+00  );
		chiDelayed nonuniform List<scalar> 1 (1.000000e+00  );
		Beta nonuniform List<scalar> 8 (7.741930e-05 7.168900e-04 2.864780e-04 6.869150e-04 1.465500e-03 6.574950e-04 5.508390e-04 2.702720e-04  );
		lambda nonuniform List<scalar> 8 (1.224420e-02 2.829170e-02 4.252440e-02 1.330420e-01 2.924670e-01 6.664880e-01 1.634780e+00 3.554600e+00  );
	}

	upperGasPlenum
	{
		IV nonuniform List<scalar> 1 (9.107470e-07  );
		D nonuniform List<scalar> 1 (5.154460e-02  );
		nuSigmaEff nonuniform List<scalar> 1 (0.000000e+00  );
		sigmaPow nonuniform List<scalar> 1 (0.000000e+00  );
		scatteringMatrixP0  1  1 (
		( 9.946730e+00 )
		);
		sigmaDisapp nonuniform List<scalar> 1 (2.480000e-02  );
		chiPrompt nonuniform List<scalar> 1 (0.000000e+00  );
		chiDelayed nonuniform List<scalar> 1 (0.000000e+00  );
		Beta nonuniform List<scalar> 8 (7.741930e-05 7.168900e-04 2.864780e-04 6.869150e-04 1.465500e-03 6.574950e-04 5.508390e-04 2.702720e-04  );
		lambda nonuniform List<scalar> 8 (1.224420e-02 2.829170e-02 4.252440e-02 1.330420e-01 2.924670e-01 6.664880e-01 1.634780e+00 3.554600e+00  );
	}

	upperReflector
	{
		IV nonuniform List<scalar> 1 (2.863810e-06  );
		D nonuniform List<scalar> 1 (1.805470e-02  );
		nuSigmaEff nonuniform List<scalar> 1 (0.000000e+00  );
		sigmaPow nonuniform List<scalar> 1 (0.000000e+00  );
		scatteringMatrixP0  1  1 (
		( 3.375940e+01 )
		);
		sigmaDisapp nonuniform List<scalar> 1 (1.516000e-01  );
		chiPrompt nonuniform List<scalar> 1 (0.000000e+00  );
		chiDelayed nonuniform List<scalar> 1 (0.000000e+00  );
		Beta nonuniform List<scalar> 8 (7.741930e-05 7.168900e-04 2.864780e-04 6.869150e-04 1.465500e-03 6.574950e-04 5.508390e-04 2.702720e-04  );
		lambda nonuniform List<scalar> 8 (1.224420e-02 2.829170e-02 4.252440e-02 1.330420e-01 2.924670e-01 6.664880e-01 1.634780e+00 3.554600e+00  );
	}

);
