/*--------------------------------*- C++ -*----------------------------------*\
|       ______          _   __           ______                               |
|      / ____/  ___    / | / /          / ____/  ____   ____ _   ____ ___     |
|     / / __   / _ \  /  |/ /  ______  / /_     / __ \ / __ `/  / __ `__ \    |
|    / /_/ /  /  __/ / /|  /  /_____/ / __/    / /_/ // /_/ /  / / / / / /    |
|    \____/   \___/ /_/ |_/          /_/       \____/ \__,_/  /_/ /_/ /_/     |
|    Copyright (C) 2015 - 2022 EPFL                                           |
\*---------------------------------------------------------------------------*/
FoamFile
{
    version     2.0;
    format      ascii;
    class       dictionary;
    object      esfr_core_res;
}
// * * * * * * * * * * * * * * * * * * * * * * * * * * * * * * * * * * * * * //

 energyGroups 1 ;

 precGroups 8 ;

 expansionFromNominal 1.333330e-02 ;
zones
 (
innerCore
{
 IV nonuniform List<scalar> 1 (3.798540e-07  );
 D nonuniform List<scalar> 1 (1.394290e-02  );
 nuSigmaEff nonuniform List<scalar> 1 (6.687910e-01  );
 sigmaPow nonuniform List<scalar> 1 (7.6317518e-12  ); //4.763365e+01
 scatteringMatrixP0  1  1 (
 ( 2.967730e+01 )
 );
 sigmaDisapp nonuniform List<scalar> 1 (5.889000e-01  );
 chiPrompt nonuniform List<scalar> 1 (1.000000e+00  );
 chiDelayed nonuniform List<scalar> 1 (1.000000e+00  );
 Beta nonuniform List<scalar> 8 (7.886800e-05 7.250060e-04 2.900990e-04 6.950260e-04 1.478740e-03 6.599940e-04 5.547530e-04 2.702780e-04  );
 lambda nonuniform List<scalar> 8 (1.222900e-02 2.829170e-02 4.252440e-02 1.330420e-01 2.924670e-01 6.664880e-01 1.634780e+00 3.554600e+00  );
 }
outerCore
{
 IV nonuniform List<scalar> 1 (3.672280e-07  );
 D nonuniform List<scalar> 1 (1.415270e-02  );
 nuSigmaEff nonuniform List<scalar> 1 (7.656640e-01  );
 sigmaPow nonuniform List<scalar> 1 (8.7157476e-12  ); //5.439942e+01
 scatteringMatrixP0  1  1 (
 ( 2.934090e+01 )
 );
 sigmaDisapp nonuniform List<scalar> 1 (6.143000e-01  );
 chiPrompt nonuniform List<scalar> 1 (1.000000e+00  );
 chiDelayed nonuniform List<scalar> 1 (1.000000e+00  );
 Beta nonuniform List<scalar> 8 (7.886800e-05 7.250060e-04 2.900990e-04 6.950260e-04 1.478740e-03 6.599940e-04 5.547530e-04 2.702780e-04  );
 lambda nonuniform List<scalar> 8 (1.222900e-02 2.829170e-02 4.252440e-02 1.330420e-01 2.924670e-01 6.664880e-01 1.634780e+00 3.554600e+00  );
 }

 );
