/*--------------------------------*- C++ -*----------------------------------*\
|       ______          _   __           ______                               |
|      / ____/  ___    / | / /          / ____/  ____   ____ _   ____ ___     |
|     / / __   / _ \  /  |/ /  ______  / /_     / __ \ / __ `/  / __ `__ \    |
|    / /_/ /  /  __/ / /|  /  /_____/ / __/    / /_/ // /_/ /  / / / / / /    |
|    \____/   \___/ /_/ |_/          /_/       \____/ \__,_/  /_/ /_/ /_/     |
|    Copyright (C) 2015 - 2022 EPFL                                           |
\*---------------------------------------------------------------------------*/
FoamFile
{
    version     2.0;
    format      ascii;
    class       dictionary;
    object      esfr_core_res;
}
// * * * * * * * * * * * * * * * * * * * * * * * * * * * * * * * * * * * * * //

 energyGroups 1 ;

 precGroups 8 ;

 expansionFromNominal 5.000000e-02 ;

 radialOrientation (1 0 0) ;

 axialOrientation (0 0 1) ;
zones
 (
radialReflector
{
 IV nonuniform List<scalar> 1 (3.447090e-06  );
 D nonuniform List<scalar> 1 (1.561300e-02  );
 nuSigmaEff nonuniform List<scalar> 1 (0.000000e+00  );
 sigmaPow nonuniform List<scalar> 1 (0.000000e+00  );
 scatteringMatrixP0  1  1 (
 ( 3.679340e+01 )
 );
 sigmaDisapp nonuniform List<scalar> 1 (1.727000e-01  );
 chiPrompt nonuniform List<scalar> 1 (0.000000e+00  );
 chiDelayed nonuniform List<scalar> 1 (0.000000e+00  );
 Beta nonuniform List<scalar> 8 (7.897540e-05 7.326800e-04 2.942590e-04 7.015400e-04 1.494530e-03 6.680390e-04 5.604880e-04 2.726840e-04  );
 lambda nonuniform List<scalar> 8 (1.225660e-02 2.829170e-02 4.252440e-02 1.330420e-01 2.924670e-01 6.664880e-01 1.634780e+00 3.554600e+00  );
 }
lowerGasPlenum
{
 IV nonuniform List<scalar> 1 (5.036080e-06  );
 D nonuniform List<scalar> 1 (3.228200e-02  );
 nuSigmaEff nonuniform List<scalar> 1 (0.000000e+00  );
 sigmaPow nonuniform List<scalar> 1 (0.000000e+00  );
 scatteringMatrixP0  1  1 (
 ( 1.387340e+01 )
 );
 sigmaDisapp nonuniform List<scalar> 1 (7.490000e-02  );
 chiPrompt nonuniform List<scalar> 1 (0.000000e+00  );
 chiDelayed nonuniform List<scalar> 1 (0.000000e+00  );
 Beta nonuniform List<scalar> 8 (7.897540e-05 7.326800e-04 2.942590e-04 7.015400e-04 1.494530e-03 6.680390e-04 5.604880e-04 2.726840e-04  );
 lambda nonuniform List<scalar> 8 (1.225660e-02 2.829170e-02 4.252440e-02 1.330420e-01 2.924670e-01 6.664880e-01 1.634780e+00 3.554600e+00  );
 }
lowerReflector
{
 IV nonuniform List<scalar> 1 (2.411150e-06  );
 D nonuniform List<scalar> 1 (1.622120e-02  );
 nuSigmaEff nonuniform List<scalar> 1 (0.000000e+00  );
 sigmaPow nonuniform List<scalar> 1 (0.000000e+00  );
 scatteringMatrixP0  1  1 (
 ( 3.416700e+01 )
 );
 sigmaDisapp nonuniform List<scalar> 1 (1.352000e-01  );
 chiPrompt nonuniform List<scalar> 1 (0.000000e+00  );
 chiDelayed nonuniform List<scalar> 1 (0.000000e+00  );
 Beta nonuniform List<scalar> 8 (7.897540e-05 7.326800e-04 2.942590e-04 7.015400e-04 1.494530e-03 6.680390e-04 5.604880e-04 2.726840e-04  );
 lambda nonuniform List<scalar> 8 (1.225660e-02 2.829170e-02 4.252440e-02 1.330420e-01 2.924670e-01 6.664880e-01 1.634780e+00 3.554600e+00  );
 }
innerCore
{
 IV nonuniform List<scalar> 1 (3.941940e-07  );
 D nonuniform List<scalar> 1 (1.429090e-02  );
 nuSigmaEff nonuniform List<scalar> 1 (6.462480e-01  );
 sigmaPow nonuniform List<scalar> 1 (7.3754548e-12 ); //4.603397e+01
 scatteringMatrixP0  1  1 (
 ( 2.889150e+01 )
 );
 sigmaDisapp nonuniform List<scalar> 1 (5.705000e-01  );
 chiPrompt nonuniform List<scalar> 1 (1.000000e+00  );
 chiDelayed nonuniform List<scalar> 1 (1.000000e+00  );
 Beta nonuniform List<scalar> 8 (7.897540e-05 7.326800e-04 2.942590e-04 7.015400e-04 1.494530e-03 6.680390e-04 5.604880e-04 2.726840e-04  );
 lambda nonuniform List<scalar> 8 (1.225660e-02 2.829170e-02 4.252440e-02 1.330420e-01 2.924670e-01 6.664880e-01 1.634780e+00 3.554600e+00  );
 }
outerCore
{
 IV nonuniform List<scalar> 1 (3.823720e-07  );
 D nonuniform List<scalar> 1 (1.449370e-02  );
 nuSigmaEff nonuniform List<scalar> 1 (7.399450e-01  );
 sigmaPow nonuniform List<scalar> 1 (8.423799e-12 ); //5.257722e+01
 scatteringMatrixP0  1  1 (
 ( 2.857760e+01 )
 );
 sigmaDisapp nonuniform List<scalar> 1 (5.951000e-01  );
 chiPrompt nonuniform List<scalar> 1 (1.000000e+00  );
 chiDelayed nonuniform List<scalar> 1 (1.000000e+00  );
 Beta nonuniform List<scalar> 8 (7.897540e-05 7.326800e-04 2.942590e-04 7.015400e-04 1.494530e-03 6.680390e-04 5.604880e-04 2.726840e-04  );
 lambda nonuniform List<scalar> 8 (1.225660e-02 2.829170e-02 4.252440e-02 1.330420e-01 2.924670e-01 6.664880e-01 1.634780e+00 3.554600e+00  );
 }
upperGasPlenum
{
 IV nonuniform List<scalar> 1 (1.098240e-06  );
 D nonuniform List<scalar> 1 (4.169420e-02  );
 nuSigmaEff nonuniform List<scalar> 1 (0.000000e+00  );
 sigmaPow nonuniform List<scalar> 1 (0.000000e+00  );
 scatteringMatrixP0  1  1 (
 ( 1.154480e+01 )
 );
 sigmaDisapp nonuniform List<scalar> 1 (2.790000e-02  );
 chiPrompt nonuniform List<scalar> 1 (0.000000e+00  );
 chiDelayed nonuniform List<scalar> 1 (0.000000e+00  );
 Beta nonuniform List<scalar> 8 (7.897540e-05 7.326800e-04 2.942590e-04 7.015400e-04 1.494530e-03 6.680390e-04 5.604880e-04 2.726840e-04  );
 lambda nonuniform List<scalar> 8 (1.225660e-02 2.829170e-02 4.252440e-02 1.330420e-01 2.924670e-01 6.664880e-01 1.634780e+00 3.554600e+00  );
 }
upperReflector
{
 IV nonuniform List<scalar> 1 (3.427100e-06  );
 D nonuniform List<scalar> 1 (1.589180e-02  );
 nuSigmaEff nonuniform List<scalar> 1 (0.000000e+00  );
 sigmaPow nonuniform List<scalar> 1 (0.000000e+00  );
 scatteringMatrixP0  1  1 (
 ( 3.500300e+01 )
 );
 sigmaDisapp nonuniform List<scalar> 1 (1.619000e-01  );
 chiPrompt nonuniform List<scalar> 1 (0.000000e+00  );
 chiDelayed nonuniform List<scalar> 1 (0.000000e+00  );
 Beta nonuniform List<scalar> 8 (7.897540e-05 7.326800e-04 2.942590e-04 7.015400e-04 1.494530e-03 6.680390e-04 5.604880e-04 2.726840e-04  );
 lambda nonuniform List<scalar> 8 (1.225660e-02 2.829170e-02 4.252440e-02 1.330420e-01 2.924670e-01 6.664880e-01 1.634780e+00 3.554600e+00  );
 }

 );
