/*--------------------------------*- C++ -*----------------------------------*\
|       ______          _   __           ______                               |
|      / ____/  ___    / | / /          / ____/  ____   ____ _   ____ ___     |
|     / / __   / _ \  /  |/ /  ______  / /_     / __ \ / __ `/  / __ `__ \    |
|    / /_/ /  /  __/ / /|  /  /_____/ / __/    / /_/ // /_/ /  / / / / / /    |
|    \____/   \___/ /_/ |_/          /_/       \____/ \__,_/  /_/ /_/ /_/     |
|    Copyright (C) 2015 - 2022 EPFL                                           |
\*---------------------------------------------------------------------------*/
FoamFile
{
    version     2.0;
    format      ascii;
    class       dictionary;
    object      esfr_core__res;
}
// * * * * * * * * * * * * * * * * * * * * * * * * * * * * * * * * * * * * * //

fastNeutrons            true; // if true interpolates cross section with logarithmic temp for fuel (otherwise, square root)

adjustDiscFactors       false;

//groupsWoDF              (0 1 2 3 4 5 6 7 8 9 14 15 16 17 18 19 20 21 22 23);

useGivenDiscFactors     false;

//doNotParametrize        ();

energyGroups 1 ;

precGroups 8 ;

pTarget 2e7; // = 3.6e9*(2/360) since my wedge covers only 2 degrees of the core

keff 1.041376; //1.041954; //1.04688975; //Exact

zones
(
    radialReflector
    {
        fuelFraction 1.000000e+00 ;
        IV nonuniform List<scalar> 1 (3.235100e-06  );
        D nonuniform List<scalar> 1 (1.542210e-02  );
        nuSigmaEff nonuniform List<scalar> 1 (0.000000e+00  );
        sigmaPow nonuniform List<scalar> 1 (0.000000e+00  );
        scatteringMatrixP0 1 1    (
                                    ( 3.865820e+01 )
                                );
        sigmaDisapp nonuniform List<scalar> 1 (1.796000e-01  );
        chiPrompt nonuniform List<scalar> 1 (0.000000e+00  );
        chiDelayed nonuniform List<scalar> 1 (0.000000e+00  );
        Beta nonuniform List<scalar> 8 (7.766920e-05 7.186310e-04 2.876310e-04 6.875460e-04 1.468130e-03 6.555560e-04 5.510660e-04 2.682440e-04  );
        lambda nonuniform List<scalar> 8 (1.223670e-02 2.829170e-02 4.252440e-02 1.330420e-01 2.924670e-01 6.664880e-01 1.634780e+00 3.554600e+00  );
        discFactor nonuniform List<scalar> 1 ( 1 );
        integralFlux nonuniform List<scalar> 1 (0);
    }

    lowerGasPlenum
    {
        fuelFraction 1.000000e+00 ;
        IV nonuniform List<scalar> 1 (4.649000e-06  );
        D nonuniform List<scalar> 1 (3.335470e-02  );
        nuSigmaEff nonuniform List<scalar> 1 (0.000000e+00  );
        sigmaPow nonuniform List<scalar> 1 (0.000000e+00  );
        scatteringMatrixP0  1  1  (
                                    ( 1.395840e+01 )
                                );
        sigmaDisapp nonuniform List<scalar> 1 (7.560000e-02  );
        chiPrompt nonuniform List<scalar> 1 (0.000000e+00  );
        chiDelayed nonuniform List<scalar> 1 (0.000000e+00  );
        Beta nonuniform List<scalar> 8 (7.766920e-05 7.186310e-04 2.876310e-04 6.875460e-04 1.468130e-03 6.555560e-04 5.510660e-04 2.682440e-04  );
        lambda nonuniform List<scalar> 8 (1.223670e-02 2.829170e-02 4.252440e-02 1.330420e-01 2.924670e-01 6.664880e-01 1.634780e+00 3.554600e+00  );
        discFactor nonuniform List<scalar> 1 ( 1 );
        integralFlux nonuniform List<scalar> 1 (0);
    }

    lowerReflector
    {
        fuelFraction 1.000000e+00 ;
        IV nonuniform List<scalar> 1 (2.334660e-06  );
        D nonuniform List<scalar> 1 (1.582720e-02  );
        nuSigmaEff nonuniform List<scalar> 1 (0.000000e+00  );
        sigmaPow nonuniform List<scalar> 1 (0.000000e+00  );
        scatteringMatrixP0  1  1  (
                                    ( 3.606600e+01 )
                                );
        sigmaDisapp nonuniform List<scalar> 1 (1.438000e-01  );
        chiPrompt nonuniform List<scalar> 1 (0.000000e+00  );
        chiDelayed nonuniform List<scalar> 1 (0.000000e+00  );
        Beta nonuniform List<scalar> 8 (7.766920e-05 7.186310e-04 2.876310e-04 6.875460e-04 1.468130e-03 6.555560e-04 5.510660e-04 2.682440e-04  );
        lambda nonuniform List<scalar> 8 (1.223670e-02 2.829170e-02 4.252440e-02 1.330420e-01 2.924670e-01 6.664880e-01 1.634780e+00 3.554600e+00  );
        discFactor nonuniform List<scalar> 1 ( 1 );
        integralFlux nonuniform List<scalar> 1 (0);
    }

    innerCore
    {
        fuelFraction 0.431509596; //4.600000e-01;
        IV nonuniform List<scalar> 1 (3.766950e-07  );
        D nonuniform List<scalar> 1 (1.347560e-02  );
        nuSigmaEff nonuniform List<scalar> 1 (7.020940e-01  );
        sigmaPow nonuniform List<scalar> 1 (8.0107803e-12  ); //4.999936e+01 8.0107803e-12
        scatteringMatrixP0  1  1  (
                                    ( 3.066120e+01 )
                                );
        sigmaDisapp nonuniform List<scalar> 1 (6.156000e-01  );
        chiPrompt nonuniform List<scalar> 1 (1.000000e+00  );
        chiDelayed nonuniform List<scalar> 1 (1.000000e+00  );
        Beta nonuniform List<scalar> 8 (7.766920e-05 7.186310e-04 2.876310e-04 6.875460e-04 1.468130e-03 6.555560e-04 5.510660e-04 2.682440e-04  );
        lambda nonuniform List<scalar> 8 (1.223670e-02 2.829170e-02 4.252440e-02 1.330420e-01 2.924670e-01 6.664880e-01 1.634780e+00 3.554600e+00  );
        discFactor nonuniform List<scalar> 1 ( 1 );
        integralFlux nonuniform List<scalar> 1 (0);
    }

    outerCore
    {
        fuelFraction 0.431509596; //4.600000e-01;
        IV nonuniform List<scalar> 1 (3.635340e-07  );
        D nonuniform List<scalar> 1 (1.368020e-02  );
        nuSigmaEff nonuniform List<scalar> 1 (8.037240e-01  );
        sigmaPow nonuniform List<scalar> 1 (9.1476319e-12  ); //5.709503e+01 9.1476319e-12
        scatteringMatrixP0  1  1  (
                                    ( 3.031310e+01 )
                                );
        sigmaDisapp nonuniform List<scalar> 1 (6.421000e-01  );
        chiPrompt nonuniform List<scalar> 1 (1.000000e+00  );
        chiDelayed nonuniform List<scalar> 1 (1.000000e+00  );
        Beta nonuniform List<scalar> 8 (7.766920e-05 7.186310e-04 2.876310e-04 6.875460e-04 1.468130e-03 6.555560e-04 5.510660e-04 2.682440e-04  );
        lambda nonuniform List<scalar> 8 (1.223670e-02 2.829170e-02 4.252440e-02 1.330420e-01 2.924670e-01 6.664880e-01 1.634780e+00 3.554600e+00  );
        discFactor nonuniform List<scalar> 1 ( 1 );
        integralFlux nonuniform List<scalar> 1 (0);
    }

    upperGasPlenum
    {
        fuelFraction 1.000000e+00 ;
        IV nonuniform List<scalar> 1 (1.028730e-06  );
        D nonuniform List<scalar> 1 (4.297410e-02  );
        nuSigmaEff nonuniform List<scalar> 1 (0.000000e+00  );
        sigmaPow nonuniform List<scalar> 1 (0.000000e+00  );
        scatteringMatrixP0  1  1  (
                                    ( 1.147340e+01 )
                                );
        sigmaDisapp nonuniform List<scalar> 1 (2.830000e-02  );
        chiPrompt nonuniform List<scalar> 1 (0.000000e+00  );
        chiDelayed nonuniform List<scalar> 1 (0.000000e+00  );
        Beta nonuniform List<scalar> 8 (7.766920e-05 7.186310e-04 2.876310e-04 6.875460e-04 1.468130e-03 6.555560e-04 5.510660e-04 2.682440e-04  );
        lambda nonuniform List<scalar> 8 (1.223670e-02 2.829170e-02 4.252440e-02 1.330420e-01 2.924670e-01 6.664880e-01 1.634780e+00 3.554600e+00  );
        discFactor nonuniform List<scalar> 1 ( 1 );
        integralFlux nonuniform List<scalar> 1 (0);
    }

    upperReflector
    {
        fuelFraction 1.000000e+00 ;
        IV nonuniform List<scalar> 1 (3.285290e-06  );
        D nonuniform List<scalar> 1 (1.563120e-02  );
        nuSigmaEff nonuniform List<scalar> 1 (0.000000e+00  );
        sigmaPow nonuniform List<scalar> 1 (0.000000e+00  );
        scatteringMatrixP0  1  1  (
                                    ( 3.685310e+01 )
                                );
        sigmaDisapp nonuniform List<scalar> 1 (1.713000e-01  );
        chiPrompt nonuniform List<scalar> 1 (0.000000e+00  );
        chiDelayed nonuniform List<scalar> 1 (0.000000e+00  );
        Beta nonuniform List<scalar> 8 (7.766920e-05 7.186310e-04 2.876310e-04 6.875460e-04 1.468130e-03 6.555560e-04 5.510660e-04 2.682440e-04  );
        lambda nonuniform List<scalar> 8 (1.223670e-02 2.829170e-02 4.252440e-02 1.330420e-01 2.924670e-01 6.664880e-01 1.634780e+00 3.554600e+00  );
        discFactor nonuniform List<scalar> 1 ( 1 );
        integralFlux nonuniform List<scalar> 1 (0);
    }
);
