/*--------------------------------*- C++ -*----------------------------------*\
|       ______          _   __           ______                               |
|      / ____/  ___    / | / /          / ____/  ____   ____ _   ____ ___     |
|     / / __   / _ \  /  |/ /  ______  / /_     / __ \ / __ `/  / __ `__ \    |
|    / /_/ /  /  __/ / /|  /  /_____/ / __/    / /_/ // /_/ /  / / / / / /    |
|    \____/   \___/ /_/ |_/          /_/       \____/ \__,_/  /_/ /_/ /_/     |
|    Copyright (C) 2015 - 2022 EPFL                                           |
\*---------------------------------------------------------------------------*/
FoamFile
{
    version     2.0;
    format      ascii;
    class       polyBoundaryMesh;
    object      boundary;
}
// * * * * * * * * * * * * * * * * * * * * * * * * * * * * * * * * * * * * * //

6
(
    outlet
    {
        type            wall;
        inGroups        1(wall);
        nFaces          7;
        startFace       747;
    }
    wedgeY+
    {
        type            wedge;
        inGroups        1(wedge);
        nFaces          406;
        startFace       754;
    }
    wedgeY-
    {
        type            wedge;
        inGroups        1(wedge);
        nFaces          406;
        startFace       1160;
    }
    wrapper
    {
        type            wall;
        inGroups        1(wall);
        nFaces          58;
        startFace       1566;
    }
    inlet
    {
        type            wall;
        inGroups        1(wall);
        nFaces          7;
        startFace       1624;
    }
    defaultFaces
    {
        type            empty;
        inGroups        1(empty);
        nFaces          58;
        startFace       1631;
    }
)

// ************************************************************************* //
