/*--------------------------------*- C++ -*----------------------------------*\
| =========                 |                                                 |
| \\      /  F ield         | OpenFOAM: The Open Source CFD Toolbox           |
|  \\    /   O peration     | Version:  v2112                                 |
|   \\  /    A nd           | Website:  www.openfoam.com                      |
|    \\/     M anipulation  |                                                 |
\*---------------------------------------------------------------------------*/
FoamFile
{
    version     2.0;
    format      ascii;
    class       dictionary;
    location    "constant/neutroRegion";
    object      neutronicsProperties;
}
// * * * * * * * * * * * * * * * * * * * * * * * * * * * * * * * * * * * * * //

// SNNeutronics pointKinetics diffusionNeutronics SP3Neutronics adjointDiffusionNeutronics
model					SP3Neutronics;
// model                   adjointDiffusionNeutronics;

eigenvalueNeutronics    true;

// ************************************************************************* //
