/*--------------------------------*- C++ -*----------------------------------*\
|       ______          _   __           ______                               |
|      / ____/  ___    / | / /          / ____/  ____   ____ _   ____ ___     |
|     / / __   / _ \  /  |/ /  ______  / /_     / __ \ / __ `/  / __ `__ \    |
|    / /_/ /  /  __/ / /|  /  /_____/ / __/    / /_/ // /_/ /  / / / / / /    |
|    \____/   \___/ /_/ |_/          /_/       \____/ \__,_/  /_/ /_/ /_/     |
|    Copyright (C) 2015 - 2022 EPFL                                           |
\*---------------------------------------------------------------------------*/
FoamFile
{
    version     2.0;
    format      ascii;
    class       dictionary;
    object      godiva_res;
}
 energyGroups 23 ; 

 precGroups 8 ; 

 pTarget 1.000000e+06 ; 

 keff 1.000000e+00 ; 

legendreMoments 3;
 
zones 
 ( 
uranium 
{ 
 fuelFraction 1.000000e+00 ; 
 IV nonuniform List<scalar> 23 (1.915420e-08 2.198150e-08 2.485260e-08 2.802010e-08 3.415500e-08 4.322770e-08 5.111150e-08 5.791000e-08 6.683370e-08 7.568150e-08 9.047930e-08 1.156200e-07 1.480100e-07 1.895230e-07 2.646280e-07 3.990920e-07 5.127900e-07 7.094770e-07 1.172820e-06 1.793570e-06 2.505190e-06 4.179760e-06 9.515190e-06  );
 D nonuniform List<scalar> 23 (2.269120e-02 2.078430e-02 1.979700e-02 1.930600e-02 1.760490e-02 1.538800e-02 1.443640e-02 1.445800e-02 1.444630e-02 1.402120e-02 1.262030e-02 1.035590e-02 8.368160e-03 7.085950e-03 6.093950e-03 5.236560e-03 4.875500e-03 4.514710e-03 4.067730e-03 3.542860e-03 2.886440e-03 2.398500e-03 1.572050e-03  );
 nuSigmaEff nonuniform List<scalar> 23 (4.315390e+01 3.267290e+01 3.018240e+01 2.255730e+01 1.532910e+01 1.561850e+01 1.569160e+01 1.486120e+01 1.395590e+01 1.324790e+01 1.267890e+01 1.334310e+01 1.433240e+01 1.579530e+01 1.818440e+01 2.211980e+01 2.540380e+01 3.128990e+01 4.718290e+01 6.428340e+01 8.630640e+01 1.212110e+02 1.729150e+02  );
 sigmaPow nonuniform List<scalar> 23 (3.116032e-10 2.659905e-10 2.687766e-10 2.168631e-10 1.666218e-10 1.841988e-10 1.920224e-10 1.855473e-10 1.773378e-10 1.702304e-10 1.647486e-10 1.750579e-10 1.892000e-10 2.095655e-10 2.427903e-10 2.957419e-10 3.390770e-10 4.169175e-10 6.284047e-10 8.561575e-10 1.149478e-09 1.614346e-09 2.302961e-09  );
 scatteringMatrixP0  23  23 ( 
 ( 1.479920e+01  7.097260e-01  2.813370e-01  1.280100e-01  2.208070e-01  3.507800e-01  2.508930e-01  3.620810e-01  3.556560e-01  2.405050e-01  4.480250e-01  2.650810e-01  1.554010e-01  6.894270e-02  5.018480e-02  1.000800e-02  6.289700e-03  1.778540e-03  8.791770e-04  0.000000e+00  0.000000e+00  0.000000e+00  0.000000e+00 )
  ( 0.000000e+00  1.398690e+01  6.893960e-01  3.203030e-01  3.788390e-01  4.080870e-01  2.997760e-01  5.255250e-01  5.782130e-01  4.350090e-01  8.594650e-01  5.279790e-01  2.677970e-01  1.189650e-01  8.820960e-02  1.127620e-02  5.751520e-03  4.458840e-03  1.070730e-03  2.319860e-04  3.865920e-04  0.000000e+00  0.000000e+00 )
  ( 0.000000e+00  0.000000e+00  1.519520e+01  7.474590e-01  5.379880e-01  6.500820e-01  3.298200e-01  5.393830e-01  5.660910e-01  4.277380e-01  8.438280e-01  5.441080e-01  2.973180e-01  1.331440e-01  8.569350e-02  1.295490e-02  5.795580e-03  4.048460e-03  7.675050e-04  1.271400e-04  1.822550e-04  1.815380e-05  3.629090e-05 )
  ( 0.000000e+00  0.000000e+00  0.000000e+00  1.865780e+01  9.150900e-01  7.270450e-01  5.735540e-01  9.675680e-01  9.248780e-01  6.035840e-01  1.085260e+00  6.560810e-01  3.398320e-01  1.602060e-01  1.092230e-01  1.681410e-02  7.971940e-03  5.598560e-03  1.154910e-03  2.517750e-04  2.696350e-04  1.406500e-04  2.343480e-05 )
  ( 0.000000e+00  0.000000e+00  0.000000e+00  0.000000e+00  2.313550e+01  8.056830e-01  3.630440e-01  8.221080e-01  1.108600e+00  9.500490e-01  2.063440e+00  1.410410e+00  7.563990e-01  3.429400e-01  2.250230e-01  3.324660e-02  1.587070e-02  1.061520e-02  2.269710e-03  4.911230e-04  5.117110e-04  2.106290e-04  6.040540e-05 )
  ( 0.000000e+00  0.000000e+00  0.000000e+00  0.000000e+00  0.000000e+00  2.218300e+01  7.437290e-01  8.787720e-01  1.169290e+00  9.897400e-01  2.181870e+00  1.539280e+00  8.530950e-01  4.031750e-01  2.727950e-01  4.072910e-02  1.892690e-02  1.300100e-02  2.756200e-03  6.025180e-04  6.320800e-04  2.228470e-04  1.032900e-04 )
  ( 0.000000e+00  0.000000e+00  0.000000e+00  0.000000e+00  0.000000e+00  0.000000e+00  1.891960e+01  1.617810e+00  1.176230e+00  1.098400e+00  2.313140e+00  1.594750e+00  8.779700e-01  4.083750e-01  2.727510e-01  4.072040e-02  1.909190e-02  1.286300e-02  2.685400e-03  6.580870e-04  6.312490e-04  2.316670e-04  1.287620e-04 )
  ( 0.000000e+00  0.000000e+00  0.000000e+00  0.000000e+00  0.000000e+00  0.000000e+00  0.000000e+00  1.830420e+01  1.740600e+00  8.758130e-01  2.404450e+00  1.740790e+00  9.130690e-01  4.157530e-01  2.785470e-01  4.133380e-02  1.968160e-02  1.334490e-02  2.867480e-03  6.649230e-04  6.058660e-04  2.409040e-04  1.202980e-04 )
  ( 0.000000e+00  0.000000e+00  0.000000e+00  0.000000e+00  0.000000e+00  0.000000e+00  0.000000e+00  0.000000e+00  1.877870e+01  2.032070e+00  1.912230e+00  1.702320e+00  1.011240e+00  4.883760e-01  3.245300e-01  4.655640e-02  2.182190e-02  1.456820e-02  3.153470e-03  7.107040e-04  6.605960e-04  2.525690e-04  1.091020e-04 )
  ( 0.000000e+00  0.000000e+00  0.000000e+00  0.000000e+00  0.000000e+00  0.000000e+00  0.000000e+00  0.000000e+00  0.000000e+00  2.041120e+01  3.921470e+00  1.267940e+00  1.028820e+00  5.282470e-01  3.531740e-01  5.347850e-02  2.555160e-02  1.724440e-02  3.795660e-03  7.740240e-04  7.466470e-04  3.000390e-04  1.448820e-04 )
  ( 0.000000e+00  0.000000e+00  0.000000e+00  0.000000e+00  0.000000e+00  0.000000e+00  0.000000e+00  0.000000e+00  0.000000e+00  0.000000e+00  2.643950e+01  2.886620e+00  8.234030e-01  4.735470e-01  3.091330e-01  3.901420e-02  1.756820e-02  1.151460e-02  2.518280e-03  5.674050e-04  5.822330e-04  2.253340e-04  9.444190e-05 )
  ( 0.000000e+00  0.000000e+00  0.000000e+00  0.000000e+00  0.000000e+00  0.000000e+00  0.000000e+00  0.000000e+00  0.000000e+00  0.000000e+00  0.000000e+00  3.238590e+01  2.833830e+00  6.490100e-01  2.716230e-01  4.081130e-02  1.983090e-02  1.272000e-02  1.948460e-03  2.334110e-04  1.314990e-04  1.628160e-05  1.199740e-06 )
  ( 0.000000e+00  0.000000e+00  0.000000e+00  0.000000e+00  0.000000e+00  0.000000e+00  0.000000e+00  0.000000e+00  0.000000e+00  0.000000e+00  0.000000e+00  0.000000e+00  3.829420e+01  2.345580e+00  9.522110e-01  1.019250e-01  3.491100e-02  1.640710e-02  2.487000e-03  3.124450e-04  1.508180e-04  1.722170e-05  9.055630e-07 )
  ( 0.000000e+00  0.000000e+00  0.000000e+00  0.000000e+00  0.000000e+00  0.000000e+00  0.000000e+00  0.000000e+00  0.000000e+00  0.000000e+00  0.000000e+00  0.000000e+00  0.000000e+00  4.350160e+01  2.173550e+00  1.656790e-01  6.179140e-02  4.821740e-02  8.179050e-03  7.610100e-04  3.972020e-04  4.367510e-05  1.557390e-06 )
  ( 0.000000e+00  0.000000e+00  0.000000e+00  0.000000e+00  0.000000e+00  0.000000e+00  0.000000e+00  0.000000e+00  0.000000e+00  0.000000e+00  0.000000e+00  0.000000e+00  0.000000e+00  0.000000e+00  4.934240e+01  4.355060e-01  1.366320e-01  7.840390e-02  1.402900e-02  1.439200e-03  7.720500e-04  9.750200e-05  1.459520e-05 )
  ( 0.000000e+00  0.000000e+00  0.000000e+00  0.000000e+00  0.000000e+00  0.000000e+00  0.000000e+00  0.000000e+00  0.000000e+00  0.000000e+00  0.000000e+00  0.000000e+00  0.000000e+00  0.000000e+00  0.000000e+00  5.328520e+01  6.250840e-01  8.791010e-03  0.000000e+00  0.000000e+00  0.000000e+00  0.000000e+00  0.000000e+00 )
  ( 0.000000e+00  0.000000e+00  0.000000e+00  0.000000e+00  0.000000e+00  0.000000e+00  0.000000e+00  0.000000e+00  0.000000e+00  0.000000e+00  0.000000e+00  0.000000e+00  0.000000e+00  0.000000e+00  0.000000e+00  0.000000e+00  5.520510e+01  6.270410e-01  4.894020e-03  1.048390e-04  0.000000e+00  0.000000e+00  0.000000e+00 )
  ( 0.000000e+00  0.000000e+00  0.000000e+00  0.000000e+00  0.000000e+00  0.000000e+00  0.000000e+00  0.000000e+00  0.000000e+00  0.000000e+00  0.000000e+00  0.000000e+00  0.000000e+00  0.000000e+00  0.000000e+00  0.000000e+00  0.000000e+00  5.724510e+01  1.541250e-01  7.553510e-04  4.309570e-04  1.212800e-04  0.000000e+00 )
  ( 0.000000e+00  0.000000e+00  0.000000e+00  0.000000e+00  0.000000e+00  0.000000e+00  0.000000e+00  0.000000e+00  0.000000e+00  0.000000e+00  0.000000e+00  0.000000e+00  0.000000e+00  0.000000e+00  0.000000e+00  0.000000e+00  0.000000e+00  0.000000e+00  5.730240e+01  1.478980e-01  0.000000e+00  0.000000e+00  0.000000e+00 )
  ( 0.000000e+00  0.000000e+00  0.000000e+00  0.000000e+00  0.000000e+00  0.000000e+00  0.000000e+00  0.000000e+00  0.000000e+00  0.000000e+00  0.000000e+00  0.000000e+00  0.000000e+00  0.000000e+00  0.000000e+00  0.000000e+00  0.000000e+00  0.000000e+00  0.000000e+00  5.731700e+01  6.456710e-01  0.000000e+00  0.000000e+00 )
  ( 0.000000e+00  0.000000e+00  0.000000e+00  0.000000e+00  0.000000e+00  0.000000e+00  0.000000e+00  0.000000e+00  0.000000e+00  0.000000e+00  0.000000e+00  0.000000e+00  0.000000e+00  0.000000e+00  0.000000e+00  0.000000e+00  0.000000e+00  0.000000e+00  0.000000e+00  0.000000e+00  5.748910e+01  2.698470e-01  0.000000e+00 )
  ( 0.000000e+00  0.000000e+00  0.000000e+00  0.000000e+00  0.000000e+00  0.000000e+00  0.000000e+00  0.000000e+00  0.000000e+00  0.000000e+00  0.000000e+00  0.000000e+00  0.000000e+00  0.000000e+00  0.000000e+00  0.000000e+00  0.000000e+00  0.000000e+00  0.000000e+00  0.000000e+00  0.000000e+00  5.475260e+01  4.256850e-02 )
  ( 0.000000e+00  0.000000e+00  0.000000e+00  0.000000e+00  0.000000e+00  0.000000e+00  0.000000e+00  0.000000e+00  0.000000e+00  0.000000e+00  0.000000e+00  0.000000e+00  0.000000e+00  0.000000e+00  0.000000e+00  0.000000e+00  0.000000e+00  0.000000e+00  0.000000e+00  0.000000e+00  0.000000e+00  0.000000e+00  5.024970e+01 )
 );
 scatteringMatrixP1  23  23 ( 
 ( 1.269360e+01  1.891360e-01  5.054120e-02  2.651780e-02  1.859150e-02  1.037120e-02  1.546760e-02  1.023100e-02  -8.192300e-03  4.829590e-03  2.377580e-02  1.025950e-02  -2.614690e-03  -2.628110e-03  3.076560e-03  2.711710e-03  1.090040e-03  1.360870e-04  -2.010300e-05  0.000000e+00  0.000000e+00  0.000000e+00  0.000000e+00 )
  ( 0.000000e+00  1.128370e+01  1.379480e-01  5.147590e-02  4.623740e-02  2.209230e-02  8.269230e-03  8.383290e-03  9.600610e-03  9.829130e-03  1.314740e-02  -1.893970e-04  -4.720700e-04  -1.498820e-03  -4.840250e-05  -2.675560e-04  -5.087650e-04  6.331270e-05  -3.348470e-04  -1.104230e-06  1.739160e-04  0.000000e+00  0.000000e+00 )
  ( 0.000000e+00  0.000000e+00  1.209950e+01  1.159580e-01  7.326310e-02  3.756740e-02  9.489990e-03  1.095580e-02  5.997050e-03  8.286190e-03  1.078340e-02  1.573390e-03  -2.047880e-03  -1.491050e-04  -1.291660e-03  -1.211880e-04  4.180270e-05  -1.078040e-04  9.241680e-05  5.995760e-05  7.618710e-06  1.769610e-05  -4.975850e-07 )
  ( 0.000000e+00  0.000000e+00  0.000000e+00  1.494540e+01  1.266750e-01  4.932030e-02  1.837850e-02  2.053260e-02  1.068570e-02  4.729950e-03  7.213300e-03  7.202740e-04  1.271670e-03  4.494050e-04  -3.089230e-04  -2.467270e-04  -3.270140e-04  -2.026050e-04  3.109930e-05  3.263780e-05  3.119030e-06  2.910520e-05  4.851080e-06 )
  ( 0.000000e+00  0.000000e+00  0.000000e+00  0.000000e+00  1.808620e+01  8.682920e-02  1.190280e-02  2.050310e-02  2.010070e-02  1.170310e-02  1.878960e-02  6.530330e-03  1.394210e-03  -9.981130e-04  -5.285120e-04  -1.060610e-04  1.384730e-04  -3.908630e-05  9.304440e-05  4.727630e-05  5.256390e-05  4.285330e-05  1.755780e-05 )
  ( 0.000000e+00  0.000000e+00  0.000000e+00  0.000000e+00  0.000000e+00  1.532180e+01  3.956110e-02  1.811680e-02  1.441370e-02  1.057130e-02  1.715720e-02  6.796890e-03  1.481580e-03  -2.353240e-04  -1.968860e-04  -7.299950e-05  -5.387440e-05  -1.018180e-04  1.349890e-04  2.721580e-05  6.526740e-05  3.162100e-05  1.775740e-05 )
  ( 0.000000e+00  0.000000e+00  0.000000e+00  0.000000e+00  0.000000e+00  0.000000e+00  1.135540e+01  6.616040e-02  1.866900e-02  1.012530e-02  1.263390e-02  4.444570e-03  1.438960e-03  -7.617200e-04  5.160910e-04  -1.993550e-04  1.415080e-04  -1.529740e-04  8.061430e-05  3.920560e-05  2.719300e-05  2.476590e-05  2.792250e-05 )
  ( 0.000000e+00  0.000000e+00  0.000000e+00  0.000000e+00  0.000000e+00  0.000000e+00  0.000000e+00  9.712500e+00  5.826230e-02  9.881520e-03  1.766890e-02  4.540880e-03  3.947250e-04  -5.899690e-04  -1.310200e-04  -4.627500e-05  -6.801300e-05  -1.087520e-04  8.432290e-05  4.747970e-06  4.665600e-05  3.046780e-05  3.417460e-05 )
  ( 0.000000e+00  0.000000e+00  0.000000e+00  0.000000e+00  0.000000e+00  0.000000e+00  0.000000e+00  0.000000e+00  9.120990e+00  6.928040e-02  1.102540e-02  8.775740e-03  1.738120e-03  -5.817560e-04  -1.370850e-04  -4.416100e-05  -3.207940e-05  -8.980910e-05  5.373490e-05  2.135280e-05  4.467670e-05  2.303520e-05  2.021780e-05 )
  ( 0.000000e+00  0.000000e+00  0.000000e+00  0.000000e+00  0.000000e+00  0.000000e+00  0.000000e+00  0.000000e+00  0.000000e+00  9.530040e+00  9.516770e-02  3.556650e-03  3.492080e-03  -3.580760e-04  1.511240e-04  8.738000e-05  3.382470e-05  1.069810e-04  6.092110e-05  1.294700e-05  3.927170e-05  3.843310e-05  3.520380e-05 )
  ( 0.000000e+00  0.000000e+00  0.000000e+00  0.000000e+00  0.000000e+00  0.000000e+00  0.000000e+00  0.000000e+00  0.000000e+00  0.000000e+00  1.024310e+01  2.621730e-02  9.427600e-04  2.281080e-04  -7.314560e-04  -5.902980e-05  4.156450e-05  -8.875820e-07  3.000210e-05  1.412030e-05  3.417360e-05  1.855310e-05  1.770480e-05 )
  ( 0.000000e+00  0.000000e+00  0.000000e+00  0.000000e+00  0.000000e+00  0.000000e+00  0.000000e+00  0.000000e+00  0.000000e+00  0.000000e+00  0.000000e+00  1.022300e+01  -6.109480e-03  -2.710310e-03  -5.065910e-04  -1.548210e-04  2.749460e-05  -4.309480e-05  -4.995170e-05  1.225070e-06  -7.072880e-06  -4.238660e-06  5.770660e-07 )
  ( 0.000000e+00  0.000000e+00  0.000000e+00  0.000000e+00  0.000000e+00  0.000000e+00  0.000000e+00  0.000000e+00  0.000000e+00  0.000000e+00  0.000000e+00  0.000000e+00  8.879800e+00  -6.222030e-02  1.890700e-03  -2.259300e-04  -6.912070e-05  -2.611670e-04  -3.500820e-05  2.098370e-06  -3.094110e-06  -9.252920e-07  -5.096830e-07 )
  ( 0.000000e+00  0.000000e+00  0.000000e+00  0.000000e+00  0.000000e+00  0.000000e+00  0.000000e+00  0.000000e+00  0.000000e+00  0.000000e+00  0.000000e+00  0.000000e+00  0.000000e+00  7.016250e+00  -9.011990e-02  4.350680e-03  1.707810e-03  5.775490e-04  -9.635960e-05  -6.174900e-05  -3.827190e-05  -6.577120e-06  -7.243030e-07 )
  ( 0.000000e+00  0.000000e+00  0.000000e+00  0.000000e+00  0.000000e+00  0.000000e+00  0.000000e+00  0.000000e+00  0.000000e+00  0.000000e+00  0.000000e+00  0.000000e+00  0.000000e+00  0.000000e+00  4.913440e+00  -5.123340e-02  2.013380e-04  2.539600e-04  1.180880e-04  1.165840e-05  5.036120e-05  -5.878470e-06  1.911950e-06 )
  ( 0.000000e+00  0.000000e+00  0.000000e+00  0.000000e+00  0.000000e+00  0.000000e+00  0.000000e+00  0.000000e+00  0.000000e+00  0.000000e+00  0.000000e+00  0.000000e+00  0.000000e+00  0.000000e+00  0.000000e+00  2.623300e+00  -1.838570e-01  1.550000e-04  0.000000e+00  0.000000e+00  0.000000e+00  0.000000e+00  0.000000e+00 )
  ( 0.000000e+00  0.000000e+00  0.000000e+00  0.000000e+00  0.000000e+00  0.000000e+00  0.000000e+00  0.000000e+00  0.000000e+00  0.000000e+00  0.000000e+00  0.000000e+00  0.000000e+00  0.000000e+00  0.000000e+00  0.000000e+00  1.740330e+00  -1.938340e-01  3.306580e-05  1.126370e-06  0.000000e+00  0.000000e+00  0.000000e+00 )
  ( 0.000000e+00  0.000000e+00  0.000000e+00  0.000000e+00  0.000000e+00  0.000000e+00  0.000000e+00  0.000000e+00  0.000000e+00  0.000000e+00  0.000000e+00  0.000000e+00  0.000000e+00  0.000000e+00  0.000000e+00  0.000000e+00  0.000000e+00  9.731860e-01  -5.192260e-02  -5.360350e-05  -3.512500e-05  -1.137210e-05  0.000000e+00 )
  ( 0.000000e+00  0.000000e+00  0.000000e+00  0.000000e+00  0.000000e+00  0.000000e+00  0.000000e+00  0.000000e+00  0.000000e+00  0.000000e+00  0.000000e+00  0.000000e+00  0.000000e+00  0.000000e+00  0.000000e+00  0.000000e+00  0.000000e+00  0.000000e+00  5.600970e-01  -4.513140e-02  0.000000e+00  0.000000e+00  0.000000e+00 )
  ( 0.000000e+00  0.000000e+00  0.000000e+00  0.000000e+00  0.000000e+00  0.000000e+00  0.000000e+00  0.000000e+00  0.000000e+00  0.000000e+00  0.000000e+00  0.000000e+00  0.000000e+00  0.000000e+00  0.000000e+00  0.000000e+00  0.000000e+00  0.000000e+00  0.000000e+00  9.815220e-01  -1.934460e-01  0.000000e+00  0.000000e+00 )
  ( 0.000000e+00  0.000000e+00  0.000000e+00  0.000000e+00  0.000000e+00  0.000000e+00  0.000000e+00  0.000000e+00  0.000000e+00  0.000000e+00  0.000000e+00  0.000000e+00  0.000000e+00  0.000000e+00  0.000000e+00  0.000000e+00  0.000000e+00  0.000000e+00  0.000000e+00  0.000000e+00  -2.159250e-01  -6.995470e-02  0.000000e+00 )
  ( 0.000000e+00  0.000000e+00  0.000000e+00  0.000000e+00  0.000000e+00  0.000000e+00  0.000000e+00  0.000000e+00  0.000000e+00  0.000000e+00  0.000000e+00  0.000000e+00  0.000000e+00  0.000000e+00  0.000000e+00  0.000000e+00  0.000000e+00  0.000000e+00  0.000000e+00  0.000000e+00  0.000000e+00  4.444220e-02  -2.870450e-02 )
  ( 0.000000e+00  0.000000e+00  0.000000e+00  0.000000e+00  0.000000e+00  0.000000e+00  0.000000e+00  0.000000e+00  0.000000e+00  0.000000e+00  0.000000e+00  0.000000e+00  0.000000e+00  0.000000e+00  0.000000e+00  0.000000e+00  0.000000e+00  0.000000e+00  0.000000e+00  0.000000e+00  0.000000e+00  0.000000e+00  -1.909170e+00 )
 );
 scatteringMatrixP2  23  23 ( 
 ( 1.085260e+01  3.043710e-02  4.376880e-03  3.919690e-04  8.754500e-03  1.501920e-02  1.991180e-02  -1.820380e-02  -1.463050e-03  -2.687850e-03  9.408620e-03  -3.416470e-03  5.970250e-03  3.110400e-03  -6.189870e-03  1.628750e-03  -7.171700e-04  -4.721410e-04  -4.388990e-04  0.000000e+00  0.000000e+00  0.000000e+00  0.000000e+00 )
  ( 0.000000e+00  9.252820e+00  2.733030e-02  4.381570e-03  1.194210e-03  4.083830e-03  3.655580e-03  1.272840e-03  2.154050e-03  7.159960e-04  4.067640e-04  -7.325430e-03  -1.116120e-03  -2.415920e-03  1.073390e-03  -3.116230e-04  -1.907710e-04  6.898720e-05  2.294330e-04  1.060440e-05  4.220510e-05  0.000000e+00  0.000000e+00 )
  ( 0.000000e+00  0.000000e+00  1.008270e+01  4.335010e-03  4.974110e-03  5.421420e-03  4.096110e-03  5.803720e-03  2.091730e-03  3.656160e-03  5.327510e-03  2.613910e-03  3.262630e-03  2.418860e-04  9.483400e-04  -1.366220e-04  1.442500e-04  2.609220e-04  -9.115080e-05  8.024930e-06  -1.699230e-05  1.679780e-05  -1.304890e-05 )
  ( 0.000000e+00  0.000000e+00  0.000000e+00  1.255120e+01  8.632650e-03  5.327760e-03  4.159650e-03  6.080650e-03  2.937760e-03  4.157690e-03  5.511380e-03  4.150910e-03  1.241970e-03  1.213930e-03  8.326250e-04  1.939590e-04  1.202920e-04  -7.125280e-06  5.443470e-05  -7.522660e-06  1.825570e-05  -1.085450e-05  1.154790e-05 )
  ( 0.000000e+00  0.000000e+00  0.000000e+00  0.000000e+00  1.478890e+01  1.154420e-02  2.423240e-03  4.780150e-03  5.381330e-03  5.156830e-03  9.545500e-03  6.190120e-03  3.279250e-03  1.290450e-03  7.028940e-04  2.496870e-05  6.499090e-05  1.256810e-04  2.423550e-05  1.577730e-05  6.039200e-06  1.308270e-05  5.315020e-06 )
  ( 0.000000e+00  0.000000e+00  0.000000e+00  0.000000e+00  0.000000e+00  1.179320e+01  -3.467200e-03  4.231300e-03  5.492480e-03  4.724330e-03  9.552650e-03  6.541230e-03  3.391930e-03  1.665720e-03  1.086770e-03  3.233220e-04  7.127310e-05  1.193120e-04  -4.509300e-06  1.827100e-06  1.826910e-05  1.693900e-05  1.004390e-05 )
  ( 0.000000e+00  0.000000e+00  0.000000e+00  0.000000e+00  0.000000e+00  0.000000e+00  8.256130e+00  -2.961050e-02  2.581580e-03  4.152110e-03  1.036810e-02  6.291250e-03  3.400080e-03  1.369850e-03  1.377040e-03  3.231500e-04  1.164940e-04  4.495340e-05  3.778530e-06  -1.248500e-06  -1.234270e-05  1.175420e-05  6.651090e-06 )
  ( 0.000000e+00  0.000000e+00  0.000000e+00  0.000000e+00  0.000000e+00  0.000000e+00  0.000000e+00  6.425990e+00  -3.538940e-02  3.614730e-03  6.400380e-03  5.564380e-03  3.233800e-03  1.295790e-03  9.756010e-04  4.402360e-05  4.883900e-05  2.040000e-05  3.648350e-05  2.410320e-05  7.123890e-06  4.722770e-06  1.737480e-05 )
  ( 0.000000e+00  0.000000e+00  0.000000e+00  0.000000e+00  0.000000e+00  0.000000e+00  0.000000e+00  0.000000e+00  5.170510e+00  -4.690110e-02  8.489680e-03  5.429680e-03  2.520250e-03  1.616970e-03  1.203290e-03  2.519380e-05  5.495600e-05  7.691170e-05  4.489180e-05  -1.301440e-05  -2.088330e-05  2.255380e-06  5.673870e-06 )
  ( 0.000000e+00  0.000000e+00  0.000000e+00  0.000000e+00  0.000000e+00  0.000000e+00  0.000000e+00  0.000000e+00  0.000000e+00  4.727330e+00  -6.607530e-02  7.748650e-03  3.614960e-03  1.742730e-03  1.319630e-03  1.099610e-04  1.880890e-04  6.440730e-05  4.493140e-05  -1.261760e-06  1.056970e-05  -2.229640e-07  1.798050e-06 )
  ( 0.000000e+00  0.000000e+00  0.000000e+00  0.000000e+00  0.000000e+00  0.000000e+00  0.000000e+00  0.000000e+00  0.000000e+00  0.000000e+00  4.066490e+00  -3.371360e-02  1.635500e-03  1.749920e-03  1.102040e-03  9.241960e-05  6.100690e-05  1.199570e-05  3.081580e-05  5.874620e-06  -1.489230e-05  5.098860e-06  3.128650e-06 )
  ( 0.000000e+00  0.000000e+00  0.000000e+00  0.000000e+00  0.000000e+00  0.000000e+00  0.000000e+00  0.000000e+00  0.000000e+00  0.000000e+00  0.000000e+00  2.945380e+00  -3.529600e-02  1.156390e-04  -9.977730e-05  -4.342360e-05  1.297710e-06  -6.969720e-06  -3.132570e-06  -8.628820e-06  -5.467840e-06  1.556800e-07  -1.586750e-07 )
  ( 0.000000e+00  0.000000e+00  0.000000e+00  0.000000e+00  0.000000e+00  0.000000e+00  0.000000e+00  0.000000e+00  0.000000e+00  0.000000e+00  0.000000e+00  0.000000e+00  1.837350e+00  -3.259930e-02  -9.678990e-04  7.914350e-05  1.031280e-04  5.545370e-05  -1.068120e-05  2.647550e-06  2.614020e-06  1.427000e-06  -2.248090e-08 )
  ( 0.000000e+00  0.000000e+00  0.000000e+00  0.000000e+00  0.000000e+00  0.000000e+00  0.000000e+00  0.000000e+00  0.000000e+00  0.000000e+00  0.000000e+00  0.000000e+00  0.000000e+00  1.003880e+00  -2.950990e-02  -1.235230e-03  -4.899140e-04  -3.424070e-04  7.242180e-06  -1.019570e-06  1.161860e-05  -7.694530e-07  -2.734150e-07 )
  ( 0.000000e+00  0.000000e+00  0.000000e+00  0.000000e+00  0.000000e+00  0.000000e+00  0.000000e+00  0.000000e+00  0.000000e+00  0.000000e+00  0.000000e+00  0.000000e+00  0.000000e+00  0.000000e+00  3.939850e-01  -3.647430e-03  2.115100e-04  1.396790e-04  2.794280e-05  3.796390e-05  -2.957100e-05  -1.171570e-05  -2.780300e-06 )
  ( 0.000000e+00  0.000000e+00  0.000000e+00  0.000000e+00  0.000000e+00  0.000000e+00  0.000000e+00  0.000000e+00  0.000000e+00  0.000000e+00  0.000000e+00  0.000000e+00  0.000000e+00  0.000000e+00  0.000000e+00  1.193590e-01  -6.461590e-03  -6.274750e-05  0.000000e+00  0.000000e+00  0.000000e+00  0.000000e+00  0.000000e+00 )
  ( 0.000000e+00  0.000000e+00  0.000000e+00  0.000000e+00  0.000000e+00  0.000000e+00  0.000000e+00  0.000000e+00  0.000000e+00  0.000000e+00  0.000000e+00  0.000000e+00  0.000000e+00  0.000000e+00  0.000000e+00  0.000000e+00  7.670830e-02  -4.911190e-03  3.652740e-05  1.722200e-05  0.000000e+00  0.000000e+00  0.000000e+00 )
  ( 0.000000e+00  0.000000e+00  0.000000e+00  0.000000e+00  0.000000e+00  0.000000e+00  0.000000e+00  0.000000e+00  0.000000e+00  0.000000e+00  0.000000e+00  0.000000e+00  0.000000e+00  0.000000e+00  0.000000e+00  0.000000e+00  0.000000e+00  7.528800e-02  -4.886960e-04  2.342740e-05  3.885740e-06  5.966270e-06  0.000000e+00 )
  ( 0.000000e+00  0.000000e+00  0.000000e+00  0.000000e+00  0.000000e+00  0.000000e+00  0.000000e+00  0.000000e+00  0.000000e+00  0.000000e+00  0.000000e+00  0.000000e+00  0.000000e+00  0.000000e+00  0.000000e+00  0.000000e+00  0.000000e+00  0.000000e+00  -1.302880e-02  -7.049500e-04  0.000000e+00  0.000000e+00  0.000000e+00 )
  ( 0.000000e+00  0.000000e+00  0.000000e+00  0.000000e+00  0.000000e+00  0.000000e+00  0.000000e+00  0.000000e+00  0.000000e+00  0.000000e+00  0.000000e+00  0.000000e+00  0.000000e+00  0.000000e+00  0.000000e+00  0.000000e+00  0.000000e+00  0.000000e+00  0.000000e+00  2.152340e-01  -2.420890e-02  0.000000e+00  0.000000e+00 )
  ( 0.000000e+00  0.000000e+00  0.000000e+00  0.000000e+00  0.000000e+00  0.000000e+00  0.000000e+00  0.000000e+00  0.000000e+00  0.000000e+00  0.000000e+00  0.000000e+00  0.000000e+00  0.000000e+00  0.000000e+00  0.000000e+00  0.000000e+00  0.000000e+00  0.000000e+00  0.000000e+00  -4.256700e-01  -2.561580e-02  0.000000e+00 )
  ( 0.000000e+00  0.000000e+00  0.000000e+00  0.000000e+00  0.000000e+00  0.000000e+00  0.000000e+00  0.000000e+00  0.000000e+00  0.000000e+00  0.000000e+00  0.000000e+00  0.000000e+00  0.000000e+00  0.000000e+00  0.000000e+00  0.000000e+00  0.000000e+00  0.000000e+00  0.000000e+00  0.000000e+00  5.135130e-01  8.164080e-03 )
  ( 0.000000e+00  0.000000e+00  0.000000e+00  0.000000e+00  0.000000e+00  0.000000e+00  0.000000e+00  0.000000e+00  0.000000e+00  0.000000e+00  0.000000e+00  0.000000e+00  0.000000e+00  0.000000e+00  0.000000e+00  0.000000e+00  0.000000e+00  0.000000e+00  0.000000e+00  0.000000e+00  0.000000e+00  0.000000e+00  -1.476090e+00 )
 );
 scatteringMatrixP3  23  23 ( 
 ( 9.239770e+00  -3.496420e-03  -3.389580e-03  -4.435970e-04  1.438220e-02  1.752220e-04  9.398040e-03  1.052110e-02  2.866330e-03  -2.938800e-04  -2.737940e-03  1.872100e-03  -5.111680e-03  -1.782200e-03  1.507110e-03  1.267880e-03  1.609580e-04  -5.505550e-05  3.012820e-05  0.000000e+00  0.000000e+00  0.000000e+00  0.000000e+00 )
  ( 0.000000e+00  7.804150e+00  -3.860610e-03  -1.643420e-03  -8.431320e-04  -7.476400e-04  -3.201530e-04  4.818310e-03  -4.330750e-03  1.640710e-03  3.747450e-03  -1.326360e-04  -7.841280e-04  -1.964710e-03  1.389280e-03  2.281220e-04  -1.654910e-04  1.813290e-04  -1.474540e-04  6.593920e-05  3.507260e-05  0.000000e+00  0.000000e+00 )
  ( 0.000000e+00  0.000000e+00  8.672110e+00  1.691600e-03  -4.932080e-04  -7.668390e-04  -2.523200e-04  -5.012460e-04  1.939760e-04  -6.477680e-04  1.805660e-04  4.033440e-04  -6.288490e-04  -1.104630e-04  -4.019780e-04  1.008790e-04  3.530760e-04  -1.013030e-04  -9.816300e-06  8.202870e-06  2.508490e-05  1.549300e-05  3.842530e-07 )
  ( 0.000000e+00  0.000000e+00  0.000000e+00  1.069110e+01  1.187540e-02  6.710100e-05  -2.108330e-04  2.357390e-03  5.817050e-04  -4.632520e-04  -4.977780e-04  3.482760e-04  -2.902580e-04  -3.424380e-04  -5.507020e-05  -1.268150e-06  6.301120e-05  6.409300e-05  3.823560e-05  -1.571440e-05  -1.017870e-05  1.630690e-06  3.331910e-06 )
  ( 0.000000e+00  0.000000e+00  0.000000e+00  0.000000e+00  1.202360e+01  6.323840e-03  -3.185640e-05  1.359610e-04  2.151560e-04  -7.130870e-05  3.510370e-04  3.975200e-04  -6.696230e-05  -1.239160e-04  1.178810e-04  1.792210e-04  7.655530e-05  -1.232270e-05  1.113920e-05  9.806890e-07  -4.862110e-06  6.015120e-06  5.288580e-06 )
  ( 0.000000e+00  0.000000e+00  0.000000e+00  0.000000e+00  0.000000e+00  9.121220e+00  1.433620e-03  2.407330e-04  3.438620e-04  1.654250e-04  -9.881350e-05  -8.392370e-05  -2.339890e-05  2.667120e-04  -1.787080e-04  -8.128970e-05  -5.212340e-06  -2.749160e-05  -6.097370e-07  4.508890e-06  -3.116740e-06  7.239300e-06  9.350510e-06 )
  ( 0.000000e+00  0.000000e+00  0.000000e+00  0.000000e+00  0.000000e+00  0.000000e+00  6.511020e+00  9.751790e-03  -1.430650e-04  9.033960e-04  8.200670e-04  -6.662960e-05  3.077580e-04  -3.922320e-04  -2.807870e-04  -6.022070e-05  6.468900e-05  1.884670e-05  5.198940e-06  9.648030e-06  -9.372300e-06  2.903380e-06  2.621060e-06 )
  ( 0.000000e+00  0.000000e+00  0.000000e+00  0.000000e+00  0.000000e+00  0.000000e+00  0.000000e+00  5.156160e+00  1.010350e-02  -7.144540e-04  1.354550e-04  4.160720e-04  -1.763040e-04  -1.449100e-04  5.648180e-05  -3.467060e-05  -2.269030e-05  -5.156640e-05  9.209680e-07  -7.479200e-06  1.775060e-05  1.163500e-05  1.983780e-06 )
  ( 0.000000e+00  0.000000e+00  0.000000e+00  0.000000e+00  0.000000e+00  0.000000e+00  0.000000e+00  0.000000e+00  3.736230e+00  4.895200e-03  -1.035520e-04  1.068170e-04  -3.182460e-04  1.439460e-04  -2.436730e-04  2.013970e-05  -1.989020e-05  -1.770240e-05  -2.487820e-05  -3.509370e-06  -1.583280e-05  -3.869740e-06  4.553760e-06 )
  ( 0.000000e+00  0.000000e+00  0.000000e+00  0.000000e+00  0.000000e+00  0.000000e+00  0.000000e+00  0.000000e+00  0.000000e+00  2.848420e+00  -8.967910e-03  -1.027210e-03  -1.142030e-04  -9.629000e-05  2.475480e-04  -1.297090e-04  -4.219680e-05  6.219440e-06  -6.563900e-06  6.816790e-06  1.044960e-05  5.770940e-08  8.035400e-08 )
  ( 0.000000e+00  0.000000e+00  0.000000e+00  0.000000e+00  0.000000e+00  0.000000e+00  0.000000e+00  0.000000e+00  0.000000e+00  0.000000e+00  1.701090e+00  -1.354330e-02  -1.943220e-04  2.196590e-04  -1.737110e-05  -4.522140e-05  2.083960e-05  -4.385420e-05  -4.815960e-07  -2.917220e-07  1.102830e-07  1.408570e-06  -1.406440e-06 )
  ( 0.000000e+00  0.000000e+00  0.000000e+00  0.000000e+00  0.000000e+00  0.000000e+00  0.000000e+00  0.000000e+00  0.000000e+00  0.000000e+00  0.000000e+00  6.873150e-01  -1.298360e-02  2.068450e-04  2.673670e-04  4.161960e-05  -4.703550e-05  -1.728090e-05  2.502670e-06  1.401690e-06  -8.620310e-07  2.178120e-06  -4.721160e-07 )
  ( 0.000000e+00  0.000000e+00  0.000000e+00  0.000000e+00  0.000000e+00  0.000000e+00  0.000000e+00  0.000000e+00  0.000000e+00  0.000000e+00  0.000000e+00  0.000000e+00  2.561320e-01  -7.750840e-03  -5.410140e-05  -5.452370e-05  4.737420e-05  3.912980e-06  -4.586070e-06  -4.486470e-07  -7.842080e-06  4.402810e-07  3.608770e-07 )
  ( 0.000000e+00  0.000000e+00  0.000000e+00  0.000000e+00  0.000000e+00  0.000000e+00  0.000000e+00  0.000000e+00  0.000000e+00  0.000000e+00  0.000000e+00  0.000000e+00  0.000000e+00  9.874270e-02  -4.107850e-03  -1.312230e-04  -1.719810e-04  -7.327160e-05  -2.821920e-06  -5.963790e-06  4.353670e-06  8.062030e-07  6.947980e-07 )