/*--------------------------------*- C++ -*----------------------------------*\
|       ______          _   __           ______                               |
|      / ____/  ___    / | / /          / ____/  ____   ____ _   ____ ___     |
|     / / __   / _ \  /  |/ /  ______  / /_     / __ \ / __ `/  / __ `__ \    |
|    / /_/ /  /  __/ / /|  /  /_____/ / __/    / /_/ // /_/ /  / / / / / /    |
|    \____/   \___/ /_/ |_/          /_/       \____/ \__,_/  /_/ /_/ /_/     |
|    Copyright (C) 2015 - 2022 EPFL                                           |
\*---------------------------------------------------------------------------*/
FoamFile
{
    version     2.0;
    format      ascii;
    class       dictionary;
    object      esfr_core__res;
}
 energyGroups 1 ; 

 precGroups 8 ; 
 TcladRef 6.680000e+02 ; 
 TcladPerturbed 1.950000e+03 ; 
zones 
 ( 
/*
diagrid 
{ 
 IV nonuniform List<scalar> 1 (3.181830e-06  );
 D nonuniform List<scalar> 1 (1.550480e-02  );
 nuSigmaEff nonuniform List<scalar> 1 (0.000000e+00  );
 sigmaPow nonuniform List<scalar> 1 (0.000000e+00  );
 scatteringMatrixP0  1  1 ( 
 ( 3.845280e+01 )
 );
 sigmaDisapp nonuniform List<scalar> 1 (1.773000e-01  );
 chiPrompt nonuniform List<scalar> 1 (0.000000e+00  );
 chiDelayed nonuniform List<scalar> 1 (0.000000e+00  );
 Beta nonuniform List<scalar> 8 (7.888230e-05 7.349200e-04 2.926340e-04 6.996460e-04 1.493330e-03 6.676860e-04 5.618610e-04 2.740460e-04  );
 lambda nonuniform List<scalar> 8 (1.225330e-02 2.829170e-02 4.252440e-02 1.330420e-01 2.924670e-01 6.664880e-01 1.634780e+00 3.554600e+00  );
 } 
radialReflector 
{ 
 IV nonuniform List<scalar> 1 (3.181830e-06  );
 D nonuniform List<scalar> 1 (1.550480e-02  );
 nuSigmaEff nonuniform List<scalar> 1 (0.000000e+00  );
 sigmaPow nonuniform List<scalar> 1 (0.000000e+00  );
 scatteringMatrixP0  1  1 ( 
 ( 3.845280e+01 )
 );
 sigmaDisapp nonuniform List<scalar> 1 (1.773000e-01  );
 chiPrompt nonuniform List<scalar> 1 (0.000000e+00  );
 chiDelayed nonuniform List<scalar> 1 (0.000000e+00  );
 Beta nonuniform List<scalar> 8 (7.888230e-05 7.349200e-04 2.926340e-04 6.996460e-04 1.493330e-03 6.676860e-04 5.618610e-04 2.740460e-04  );
 lambda nonuniform List<scalar> 8 (1.225330e-02 2.829170e-02 4.252440e-02 1.330420e-01 2.924670e-01 6.664880e-01 1.634780e+00 3.554600e+00  );
 } 
lowerGasPlenum 
{ 
 IV nonuniform List<scalar> 1 (4.869240e-06  );
 D nonuniform List<scalar> 1 (3.393920e-02  );
 nuSigmaEff nonuniform List<scalar> 1 (0.000000e+00  );
 sigmaPow nonuniform List<scalar> 1 (0.000000e+00  );
 scatteringMatrixP0  1  1 ( 
 ( 1.376750e+01 )
 );
 sigmaDisapp nonuniform List<scalar> 1 (7.740000e-02  );
 chiPrompt nonuniform List<scalar> 1 (0.000000e+00  );
 chiDelayed nonuniform List<scalar> 1 (0.000000e+00  );
 Beta nonuniform List<scalar> 8 (7.888230e-05 7.349200e-04 2.926340e-04 6.996460e-04 1.493330e-03 6.676860e-04 5.618610e-04 2.740460e-04  );
 lambda nonuniform List<scalar> 8 (1.225330e-02 2.829170e-02 4.252440e-02 1.330420e-01 2.924670e-01 6.664880e-01 1.634780e+00 3.554600e+00  );
 } 
lowerReflector 
{ 
 IV nonuniform List<scalar> 1 (2.426680e-06  );
 D nonuniform List<scalar> 1 (1.552270e-02  );
 nuSigmaEff nonuniform List<scalar> 1 (0.000000e+00  );
 sigmaPow nonuniform List<scalar> 1 (0.000000e+00  );
 scatteringMatrixP0  1  1 ( 
 ( 3.692740e+01 )
 );
 sigmaDisapp nonuniform List<scalar> 1 (1.508000e-01  );
 chiPrompt nonuniform List<scalar> 1 (0.000000e+00  );
 chiDelayed nonuniform List<scalar> 1 (0.000000e+00  );
 Beta nonuniform List<scalar> 8 (7.888230e-05 7.349200e-04 2.926340e-04 6.996460e-04 1.493330e-03 6.676860e-04 5.618610e-04 2.740460e-04  );
 lambda nonuniform List<scalar> 8 (1.225330e-02 2.829170e-02 4.252440e-02 1.330420e-01 2.924670e-01 6.664880e-01 1.634780e+00 3.554600e+00  );
 } */
/*
innerCore 
{ 
 IV nonuniform List<scalar> 1 (3.857020e-07  );
 D nonuniform List<scalar> 1 (1.359910e-02  );
 nuSigmaEff nonuniform List<scalar> 1 (7.091110e-01  );
 sigmaPow nonuniform List<scalar> 1 (5.050561e+01  );
 scatteringMatrixP0  1  1 ( 
 ( 3.037220e+01 )
 );
 sigmaDisapp nonuniform List<scalar> 1 (6.227000e-01  );
 chiPrompt nonuniform List<scalar> 1 (1.000000e+00  );
 chiDelayed nonuniform List<scalar> 1 (1.000000e+00  );
 Beta nonuniform List<scalar> 8 (7.888230e-05 7.349200e-04 2.926340e-04 6.996460e-04 1.493330e-03 6.676860e-04 5.618610e-04 2.740460e-04  );
 lambda nonuniform List<scalar> 8 (1.225330e-02 2.829170e-02 4.252440e-02 1.330420e-01 2.924670e-01 6.664880e-01 1.634780e+00 3.554600e+00  );
 } 
outerCore 
{ 
 IV nonuniform List<scalar> 1 (3.630090e-07  );
 D nonuniform List<scalar> 1 (1.385190e-02  );
 nuSigmaEff nonuniform List<scalar> 1 (8.071500e-01  );
 sigmaPow nonuniform List<scalar> 1 (5.732938e+01  );
 scatteringMatrixP0  1  1 ( 
 ( 2.995110e+01 )
 );
 sigmaDisapp nonuniform List<scalar> 1 (6.413000e-01  );
 chiPrompt nonuniform List<scalar> 1 (1.000000e+00  );
 chiDelayed nonuniform List<scalar> 1 (1.000000e+00  );
 Beta nonuniform List<scalar> 8 (7.888230e-05 7.349200e-04 2.926340e-04 6.996460e-04 1.493330e-03 6.676860e-04 5.618610e-04 2.740460e-04  );
 lambda nonuniform List<scalar> 8 (1.225330e-02 2.829170e-02 4.252440e-02 1.330420e-01 2.924670e-01 6.664880e-01 1.634780e+00 3.554600e+00  );
 } 
*/
/*
upperGasPlenum 
{ 
 IV nonuniform List<scalar> 1 (8.638680e-07  );
 D nonuniform List<scalar> 1 (4.494620e-02  );
 nuSigmaEff nonuniform List<scalar> 1 (0.000000e+00  );
 sigmaPow nonuniform List<scalar> 1 (0.000000e+00  );
 scatteringMatrixP0  1  1 ( 
 ( 1.105970e+01 )
 );
 sigmaDisapp nonuniform List<scalar> 1 (2.590000e-02  );
 chiPrompt nonuniform List<scalar> 1 (0.000000e+00  );
 chiDelayed nonuniform List<scalar> 1 (0.000000e+00  );
 Beta nonuniform List<scalar> 8 (7.888230e-05 7.349200e-04 2.926340e-04 6.996460e-04 1.493330e-03 6.676860e-04 5.618610e-04 2.740460e-04  );
 lambda nonuniform List<scalar> 8 (1.225330e-02 2.829170e-02 4.252440e-02 1.330420e-01 2.924670e-01 6.664880e-01 1.634780e+00 3.554600e+00  );
 } 
upperReflector 
{ 
 IV nonuniform List<scalar> 1 (2.658210e-06  );
 D nonuniform List<scalar> 1 (1.615770e-02  );
 nuSigmaEff nonuniform List<scalar> 1 (0.000000e+00  );
 sigmaPow nonuniform List<scalar> 1 (0.000000e+00  );
 scatteringMatrixP0  1  1 ( 
 ( 3.567840e+01 )
 );
 sigmaDisapp nonuniform List<scalar> 1 (1.485000e-01  );
 chiPrompt nonuniform List<scalar> 1 (0.000000e+00  );
 chiDelayed nonuniform List<scalar> 1 (0.000000e+00  );
 Beta nonuniform List<scalar> 8 (7.888230e-05 7.349200e-04 2.926340e-04 6.996460e-04 1.493330e-03 6.676860e-04 5.618610e-04 2.740460e-04  );
 lambda nonuniform List<scalar> 8 (1.225330e-02 2.829170e-02 4.252440e-02 1.330420e-01 2.924670e-01 6.664880e-01 1.634780e+00 3.554600e+00  );
 } 
follower 
{ 
 IV nonuniform List<scalar> 1 (1.112160e-06  );
 D nonuniform List<scalar> 1 (3.349670e-02  );
 nuSigmaEff nonuniform List<scalar> 1 (0.000000e+00  );
 sigmaPow nonuniform List<scalar> 1 (0.000000e+00  );
 scatteringMatrixP0  1  1 ( 
 ( 1.308500e+01 )
 );
 sigmaDisapp nonuniform List<scalar> 1 (1.750000e-02  );
 chiPrompt nonuniform List<scalar> 1 (0.000000e+00  );
 chiDelayed nonuniform List<scalar> 1 (0.000000e+00  );
 Beta nonuniform List<scalar> 8 (7.888230e-05 7.349200e-04 2.926340e-04 6.996460e-04 1.493330e-03 6.676860e-04 5.618610e-04 2.740460e-04  );
 lambda nonuniform List<scalar> 8 (1.225330e-02 2.829170e-02 4.252440e-02 1.330420e-01 2.924670e-01 6.664880e-01 1.634780e+00 3.554600e+00  );
 } 
controlRod 
{ 
 IV nonuniform List<scalar> 1 (8.410660e-07  );
 D nonuniform List<scalar> 1 (1.569820e-02  );
 nuSigmaEff nonuniform List<scalar> 1 (0.000000e+00  );
 sigmaPow nonuniform List<scalar> 1 (0.000000e+00  );
 scatteringMatrixP0  1  1 ( 
 ( 2.495870e+01 )
 );
 sigmaDisapp nonuniform List<scalar> 1 (1.669600e+00  );
 chiPrompt nonuniform List<scalar> 1 (0.000000e+00  );
 chiDelayed nonuniform List<scalar> 1 (0.000000e+00  );
 Beta nonuniform List<scalar> 8 (7.888230e-05 7.349200e-04 2.926340e-04 6.996460e-04 1.493330e-03 6.676860e-04 5.618610e-04 2.740460e-04  );
 lambda nonuniform List<scalar> 8 (1.225330e-02 2.829170e-02 4.252440e-02 1.330420e-01 2.924670e-01 6.664880e-01 1.634780e+00 3.554600e+00  );
 } 
*/
 ); 
