/*--------------------------------*- C++ -*----------------------------------*\
|       ______          _   __           ______                               |
|      / ____/  ___    / | / /          / ____/  ____   ____ _   ____ ___     |
|     / / __   / _ \  /  |/ /  ______  / /_     / __ \ / __ `/  / __ `__ \    |
|    / /_/ /  /  __/ / /|  /  /_____/ / __/    / /_/ // /_/ /  / / / / / /    |
|    \____/   \___/ /_/ |_/          /_/       \____/ \__,_/  /_/ /_/ /_/     |
|    Copyright (C) 2015 - 2022 EPFL                                           |
\*---------------------------------------------------------------------------*/
FoamFile
{
    version     2.0;
    format      ascii;
    class       dictionary;
    object      esfr_core__res;
}
discreteDirectionsOct 4;

 directionUxOct nonuniform List<scalar> 4 (
2.09769106510711E-01
9.54983687770317E-01
2.09769106510711E-01
5.77350269189625E-01
);
 directionUyOct nonuniform List<scalar> 4 (
2.09769106510711E-01
2.09769106510711E-01
9.54983687770317E-01
5.77350269189625E-01
);
 directionUzOct nonuniform List<scalar> 4 (
9.54983687770317E-01
2.09769106510711E-01
2.09769106510711E-01
5.77350269189625E-01
);
 directionWeightsOct nonuniform List<scalar> 4 (
3.39836909454130E-01
3.39836909454103E-01
3.39836909454103E-01
5.51285598432481E-01
);
