/*--------------------------------*- C++ -*----------------------------------*\
|       ______          _   __           ______                               |
|      / ____/  ___    / | / /          / ____/  ____   ____ _   ____ ___     |
|     / / __   / _ \  /  |/ /  ______  / /_     / __ \ / __ `/  / __ `__ \    |
|    / /_/ /  /  __/ / /|  /  /_____/ / __/    / /_/ // /_/ /  / / / / / /    |
|    \____/   \___/ /_/ |_/          /_/       \____/ \__,_/  /_/ /_/ /_/     |
|    Copyright (C) 2015 - 2022 EPFL                                           |
\*---------------------------------------------------------------------------*/
FoamFile
{
    version     2.0;
    format      ascii;
    class       dictionary;
    object      blockMeshDict;
}
// * * * * * * * * * * * * * * * * * * * * * * * * * * * * * * * * * * * * * //

convertToMeters 1;

vertices
(
    (0 0 0)  //0
    (0.29433 0 0)  //1
    (0.29433 0.29433 0)  //2
    (0 0.29433 0)  //3
    (0 0 3.53196) //4
    (0.29433 0 3.53196)  //5
    (0.29433 0.29433 3.53196)   //6
    (0 0.29433 3.53196)                     // (0 1 12)   //7

);

blocks
(
    hex (0 1 2 3 4 5 6 7) (1 1 640) simpleGrading (1 1 1)
);

edges
(
);

boundary
(

top
{
type cyclic;
neighbourPatch bottom;
faces ((4 5 6 7));
}

bottom
{
type cyclic;
neighbourPatch top;
faces ((0 1 2 3));
}

        walls
        {
                type wall;
                faces
                (
                        (7 6 2 3)
			(4 5 1 0)
                );
        }

);
