/*--------------------------------*- C++ -*----------------------------------*\
|       ______          _   __           ______                               |
|      / ____/  ___    / | / /          / ____/  ____   ____ _   ____ ___     |
|     / / __   / _ \  /  |/ /  ______  / /_     / __ \ / __ `/  / __ `__ \    |
|    / /_/ /  /  __/ / /|  /  /_____/ / __/    / /_/ // /_/ /  / / / / / /    |
|    \____/   \___/ /_/ |_/          /_/       \____/ \__,_/  /_/ /_/ /_/     |
|    Copyright (C) 2015 - 2022 EPFL                                           |
\*---------------------------------------------------------------------------*/
FoamFile
{
    version     2.0;
    format      ascii;
    class       dictionary;
    object      topoSetDict;
}
// * * * * * * * * * * * * * * * * * * * * * * * * * * * * * * * * * * * * * //

actions
(
    {
        name    core;
        type    cellZoneSet;
        action  new;
        source  boxToCell;
        sourceInfo
        {
            box (0 0 0.10003) (0.454142 0.454142 2.82488);       //length = 2.72485         //(0 0 2) (1 1 5);
        }
    }
    {
        name    HotLeg;
        type    cellZoneSet;
        action  new;
        source  boxToCell;
        sourceInfo
        {
            box (0 0 2.82488) (0.454142 0.454142 3.642335);   //length = 0.817455                                    //(0 0 5) (1 1 8);
        }
    }
    {
        name    pump;
        type    cellZoneSet;
        action  new;
        source  boxToCell;
        sourceInfo
        {
            box (0 0 3.642335) (0.454142  0.454142 4.023814);    // (0 0 8) (1  1 9);
          
        }
    }

    {
        name    hx;
        type    cellZoneSet;
        action  new;
        source  boxToCell;
        sourceInfo
        {
            box (0 0 4.023814) (0.454142 0.454142 4.732275);  //(0 0 9) (1 1 11); lenght = 0.708461
        }
    }
    {
        name    ColdLeg;
        type    cellZoneSet;
        action  new;
        source  boxToCell;
        sourceInfo
        {
            
            boxes
            (
                  (0 0 0) (0.454142 0.454142 0.10003)  // length = 0.817455
                  (0 0 4.732275) (0.454142 0.454142 5.4497)
            );
            
            /*boxes
            (
                (0 0 0) (0.454142 0.454142 0.5886)                           //(0 0 0) (1 1 2)
                (0 0 3.23763) (0.454142 0.454142 3.53196)                          //(0 0 11) (1 1 12)
            );*/
        }
    }
    
    // selection of faces inside the heat exchanger
    {
    
       name controlArea1;
       type faceSet;
       action new;
       source boxToFace;    //A topoSetFaceSource to select all faces whose face centre inside given bounding box(es).
       sourceInfo
       {
         box (0 0 0.5) (0.454142 0.454142 0.505);
       }
    }
    
    
    {
      name massFlowSurface_z1;
      type faceZoneSet;
      action new;
      source setToFaceZone;
      faceSet controlArea1;
         
    }
    
    {
    
       name controlArea2;
       type faceSet;
       action new;
       source boxToFace;    //A topoSetFaceSource to select all faces whose face centre inside given bounding box(es).
       sourceInfo
       {
         box (0 0 0.110) (0.454142 0.454142 0.111);
       }
    }
    
     {
      name massFlowSurface_z2;
      type faceZoneSet;
      action new;
      source setToFaceZone;
      faceSet controlArea2;
         
    }
    
    
    {
    
       name controlArea3;
       type faceSet;
       action new;
       source boxToFace;    //A topoSetFaceSource to select all faces whose face centre inside given bounding box(es).
       sourceInfo
       {
         box (0 0 0.10003) (0.454142 0.454142 0.10303);
       }
    }
    
    {
      name TcoreInlet;
      type faceZoneSet;
      action new;
      source setToFaceZone;
      faceSet controlArea3;
         
    }
    
    
    {
    
       name controlArea4;
       type faceSet;
       action new;
       source boxToFace;    //A topoSetFaceSource to select all faces whose face centre inside given bounding box(es).
       sourceInfo
       {
         box (0 0 2.800) (0.454142 0.454142 2.80200);
       }
    }
    
    {
      name TcoreOutlet;
      type faceZoneSet;
      action new;
      source setToFaceZone;
      faceSet controlArea4;
         
    }
    
);

