/*--------------------------------*- C++ -*----------------------------------*\
|       ______          _   __           ______                               |
|      / ____/  ___    / | / /          / ____/  ____   ____ _   ____ ___     |
|     / / __   / _ \  /  |/ /  ______  / /_     / __ \ / __ `/  / __ `__ \    |
|    / /_/ /  /  __/ / /|  /  /_____/ / __/    / /_/ // /_/ /  / / / / / /    |
|    \____/   \___/ /_/ |_/          /_/       \____/ \__,_/  /_/ /_/ /_/     |
|    Copyright (C) 2015 - 2022 EPFL                                           |
\*---------------------------------------------------------------------------*/
FoamFile
{
    version     2.0;
    format      ascii;
    class       dictionary;
    object      controlDict;
}
// * * * * * * * * * * * * * * * * * * * * * * * * * * * * * * * * * * * * * //

application     GeN-Foam;

startFrom       startTime;

startTime       0;

stopAt          endTime;

endTime         20;

deltaT          0.001;

writeControl    adjustableRunTime;

writeInterval   1;

purgeWrite      0;

writeFormat     ascii;

writePrecision  6;

writeCompression off;

timeFormat      general;

timePrecision   6;

runTimeModifiable true;

//- Physics to Solve

solveFluidMechanics true;

solveEnergy     true;

includeKineticEnergy false;

solveNeutronics false;

solveThermalMechanics false;

//- Global options

liquidFuel false;

//- Time step control options

adjustTimeStep  true;

maxDeltaT       0.01;

maxCo           10;

//- Write field options

writeRestartFields true;

writeContinuityErrors true;

//- Function objects

functions
{
    inletPValues
    {
        type            surfaceFieldValue;
        libs            ( "libfieldFunctionObjects.so" );
        log             true;
        writeFields     false;
        regionType      patch;
        name            inletP;
        operation       average;
        fields          ( alphaRhoPhi T);
        region          "fluidRegion";
    }

    inletSValues
    {
        type            surfaceFieldValue;
        libs            ( "libfieldFunctionObjects.so" );
        log             true;
        writeFields     false;
        regionType      patch;
        name            inletS;
        operation       average;
        fields          ( alphaRhoPhi T);
        region          "fluidRegion";
    }

    outletPValues
    {
        type            surfaceFieldValue;
        libs            ( "libfieldFunctionObjects.so" );
        log             true;
        writeFields     false;
        regionType      patch;
        name            outletP;
        operation       average;
        fields          ( alphaRhoPhi T);
        region          "fluidRegion";
    }

    outletSValues
    {
        type            surfaceFieldValue;
        libs            ( "libfieldFunctionObjects.so" );
        log             true;
        writeFields     false;
        regionType      patch;
        name            outletS;
        operation       average;
        fields          ( alphaRhoPhi T);
        region          "fluidRegion";
    }
}

// ************************************************************************* //
