/*--------------------------------*- C++ -*----------------------------------*\
|       ______          _   __           ______                               |
|      / ____/  ___    / | / /          / ____/  ____   ____ _   ____ ___     |
|     / / __   / _ \  /  |/ /  ______  / /_     / __ \ / __ `/  / __ `__ \    |
|    / /_/ /  /  __/ / /|  /  /_____/ / __/    / /_/ // /_/ /  / / / / / /    |
|    \____/   \___/ /_/ |_/          /_/       \____/ \__,_/  /_/ /_/ /_/     |
|    Copyright (C) 2015 - 2022 EPFL                                           |
\*---------------------------------------------------------------------------*/
FoamFile
{
    version     2.0;
    format      ascii;
    class       dictionary;
    object      esfr_core_res;
}
energyGroups 1 ; 

precGroups 8 ; 

expansionFromNominal 0.05 ; // expansion from nominal state

radialOrientation (1 0 0) ; 

axialOrientation (0 0 1) ;

// XSs obtained for the expanded geometry.  Only cellZones that you want to parametrize must be specified
zones 
( 

diagrid 
{ 
    IV nonuniform List<scalar> 1 (3.397600e-06  );
    D nonuniform List<scalar> 1 (1.568750e-02  );
    nuSigmaEff nonuniform List<scalar> 1 (0.000000e+00  );
    sigmaPow nonuniform List<scalar> 1 (0.000000e+00  );
    scatteringMatrixP0  1  1 ( 
    ( 3.662770e+01 )
    );
    sigmaDisapp nonuniform List<scalar> 1 (1.707000e-01  );
    chiPrompt nonuniform List<scalar> 1 (0.000000e+00  );
    chiDelayed nonuniform List<scalar> 1 (0.000000e+00  );
    Beta nonuniform List<scalar> 8 (8.063720e-05 7.486470e-04 3.001280e-04 7.147110e-04 1.522410e-03 6.800490e-04 5.712980e-04 2.779920e-04  );
    lambda nonuniform List<scalar> 8 (1.222920e-02 2.829170e-02 4.252440e-02 1.330420e-01 2.924670e-01 6.664880e-01 1.634780e+00 3.554600e+00  );
} 
radialReflector 
{ 
    IV nonuniform List<scalar> 1 (3.397600e-06  );
    D nonuniform List<scalar> 1 (1.568750e-02  );
    nuSigmaEff nonuniform List<scalar> 1 (0.000000e+00  );
    sigmaPow nonuniform List<scalar> 1 (0.000000e+00  );
    scatteringMatrixP0  1  1 ( 
    ( 3.662770e+01 )
    );
    sigmaDisapp nonuniform List<scalar> 1 (1.707000e-01  );
    chiPrompt nonuniform List<scalar> 1 (0.000000e+00  );
    chiDelayed nonuniform List<scalar> 1 (0.000000e+00  );
    Beta nonuniform List<scalar> 8 (8.063720e-05 7.486470e-04 3.001280e-04 7.147110e-04 1.522410e-03 6.800490e-04 5.712980e-04 2.779920e-04  );
    lambda nonuniform List<scalar> 8 (1.222920e-02 2.829170e-02 4.252440e-02 1.330420e-01 2.924670e-01 6.664880e-01 1.634780e+00 3.554600e+00  );
} 
lowerGasPlenum 
{ 
    IV nonuniform List<scalar> 1 (5.368900e-06  );
    D nonuniform List<scalar> 1 (3.174040e-02  );
    nuSigmaEff nonuniform List<scalar> 1 (0.000000e+00  );
    sigmaPow nonuniform List<scalar> 1 (0.000000e+00  );
    scatteringMatrixP0  1  1 ( 
    ( 1.402970e+01 )
    );
    sigmaDisapp nonuniform List<scalar> 1 (7.880000e-02  );
    chiPrompt nonuniform List<scalar> 1 (0.000000e+00  );
    chiDelayed nonuniform List<scalar> 1 (0.000000e+00  );
    Beta nonuniform List<scalar> 8 (8.063720e-05 7.486470e-04 3.001280e-04 7.147110e-04 1.522410e-03 6.800490e-04 5.712980e-04 2.779920e-04  );
    lambda nonuniform List<scalar> 8 (1.222920e-02 2.829170e-02 4.252440e-02 1.330420e-01 2.924670e-01 6.664880e-01 1.634780e+00 3.554600e+00  );
} 
lowerReflector 
{ 
    IV nonuniform List<scalar> 1 (2.543030e-06  );
    D nonuniform List<scalar> 1 (1.597610e-02  );
    nuSigmaEff nonuniform List<scalar> 1 (0.000000e+00  );
    sigmaPow nonuniform List<scalar> 1 (0.000000e+00  );
    scatteringMatrixP0  1  1 ( 
    ( 3.465360e+01 )
    );
    sigmaDisapp nonuniform List<scalar> 1 (1.405000e-01  );
    chiPrompt nonuniform List<scalar> 1 (0.000000e+00  );
    chiDelayed nonuniform List<scalar> 1 (0.000000e+00  );
    Beta nonuniform List<scalar> 8 (8.063720e-05 7.486470e-04 3.001280e-04 7.147110e-04 1.522410e-03 6.800490e-04 5.712980e-04 2.779920e-04  );
    lambda nonuniform List<scalar> 8 (1.222920e-02 2.829170e-02 4.252440e-02 1.330420e-01 2.924670e-01 6.664880e-01 1.634780e+00 3.554600e+00  );
} 
innerCore 
{ 
    IV nonuniform List<scalar> 1 (4.080030e-07  );
    D nonuniform List<scalar> 1 (1.426420e-02  );
    nuSigmaEff nonuniform List<scalar> 1 (6.548070e-01  );
    sigmaPow nonuniform List<scalar> 1 (7.47486E-11  );
    scatteringMatrixP0  1  1 ( 
    ( 2.893590e+01 )
    );
    sigmaDisapp nonuniform List<scalar> 1 (5.802000e-01  );
    chiPrompt nonuniform List<scalar> 1 (1.000000e+00  );
    chiDelayed nonuniform List<scalar> 1 (1.000000e+00  );
    Beta nonuniform List<scalar> 8 (8.063720e-05 7.486470e-04 3.001280e-04 7.147110e-04 1.522410e-03 6.800490e-04 5.712980e-04 2.779920e-04  );
    lambda nonuniform List<scalar> 8 (1.222920e-02 2.829170e-02 4.252440e-02 1.330420e-01 2.924670e-01 6.664880e-01 1.634780e+00 3.554600e+00  );
} 
outerCore 
{ 
    IV nonuniform List<scalar> 1 (3.849620e-07  );
    D nonuniform List<scalar> 1 (1.451270e-02  );
    nuSigmaEff nonuniform List<scalar> 1 (7.445910e-01  );
    sigmaPow nonuniform List<scalar> 1 (8.47629E-11  );
    scatteringMatrixP0  1  1 ( 
    ( 2.855330e+01 )
    );
    sigmaDisapp nonuniform List<scalar> 1 (5.973000e-01  );
    chiPrompt nonuniform List<scalar> 1 (1.000000e+00  );
    chiDelayed nonuniform List<scalar> 1 (1.000000e+00  );
    Beta nonuniform List<scalar> 8 (8.063720e-05 7.486470e-04 3.001280e-04 7.147110e-04 1.522410e-03 6.800490e-04 5.712980e-04 2.779920e-04  );
    lambda nonuniform List<scalar> 8 (1.222920e-02 2.829170e-02 4.252440e-02 1.330420e-01 2.924670e-01 6.664880e-01 1.634780e+00 3.554600e+00  );
} 
upperGasPlenum 
{ 
    IV nonuniform List<scalar> 1 (9.361340e-07  );
    D nonuniform List<scalar> 1 (4.202450e-02  );
    nuSigmaEff nonuniform List<scalar> 1 (0.000000e+00  );
    sigmaPow nonuniform List<scalar> 1 (0.000000e+00  );
    scatteringMatrixP0  1  1 ( 
    ( 1.148940e+01 )
    );
    sigmaDisapp nonuniform List<scalar> 1 (2.570000e-02  );
    chiPrompt nonuniform List<scalar> 1 (0.000000e+00  );
    chiDelayed nonuniform List<scalar> 1 (0.000000e+00  );
    Beta nonuniform List<scalar> 8 (8.063720e-05 7.486470e-04 3.001280e-04 7.147110e-04 1.522410e-03 6.800490e-04 5.712980e-04 2.779920e-04  );
    lambda nonuniform List<scalar> 8 (1.222920e-02 2.829170e-02 4.252440e-02 1.330420e-01 2.924670e-01 6.664880e-01 1.634780e+00 3.554600e+00  );
} 
upperReflector 
{ 
    IV nonuniform List<scalar> 1 (2.789140e-06  );
    D nonuniform List<scalar> 1 (1.638900e-02  );
    nuSigmaEff nonuniform List<scalar> 1 (0.000000e+00  );
    sigmaPow nonuniform List<scalar> 1 (0.000000e+00  );
    scatteringMatrixP0  1  1 ( 
    ( 3.404650e+01 )
    );
    sigmaDisapp nonuniform List<scalar> 1 (1.413000e-01  );
    chiPrompt nonuniform List<scalar> 1 (0.000000e+00  );
    chiDelayed nonuniform List<scalar> 1 (0.000000e+00  );
    Beta nonuniform List<scalar> 8 (8.063720e-05 7.486470e-04 3.001280e-04 7.147110e-04 1.522410e-03 6.800490e-04 5.712980e-04 2.779920e-04  );
    lambda nonuniform List<scalar> 8 (1.222920e-02 2.829170e-02 4.252440e-02 1.330420e-01 2.924670e-01 6.664880e-01 1.634780e+00 3.554600e+00  );
} 
follower 
{ 
    IV nonuniform List<scalar> 1 (1.247810e-06  );
    D nonuniform List<scalar> 1 (3.383860e-02  );
    nuSigmaEff nonuniform List<scalar> 1 (0.000000e+00  );
    sigmaPow nonuniform List<scalar> 1 (0.000000e+00  );
    scatteringMatrixP0  1  1 ( 
    ( 1.288150e+01 )
    );
    sigmaDisapp nonuniform List<scalar> 1 (1.750000e-02  );
    chiPrompt nonuniform List<scalar> 1 (0.000000e+00  );
    chiDelayed nonuniform List<scalar> 1 (0.000000e+00  );
    Beta nonuniform List<scalar> 8 (8.063720e-05 7.486470e-04 3.001280e-04 7.147110e-04 1.522410e-03 6.800490e-04 5.712980e-04 2.779920e-04  );
    lambda nonuniform List<scalar> 8 (1.222920e-02 2.829170e-02 4.252440e-02 1.330420e-01 2.924670e-01 6.664880e-01 1.634780e+00 3.554600e+00  );
} 
controlRod 
{ 
    IV nonuniform List<scalar> 1 (9.746130e-07  );
    D nonuniform List<scalar> 1 (1.659350e-02  );
    nuSigmaEff nonuniform List<scalar> 1 (0.000000e+00  );
    sigmaPow nonuniform List<scalar> 1 (0.000000e+00  );
    scatteringMatrixP0  1  1 ( 
    ( 2.355320e+01 )
    );
    sigmaDisapp nonuniform List<scalar> 1 (1.529700e+00  );
    chiPrompt nonuniform List<scalar> 1 (0.000000e+00  );
    chiDelayed nonuniform List<scalar> 1 (0.000000e+00  );
    Beta nonuniform List<scalar> 8 (8.063720e-05 7.486470e-04 3.001280e-04 7.147110e-04 1.522410e-03 6.800490e-04 5.712980e-04 2.779920e-04  );
    lambda nonuniform List<scalar> 8 (1.222920e-02 2.829170e-02 4.252440e-02 1.330420e-01 2.924670e-01 6.664880e-01 1.634780e+00 3.554600e+00  );
} 

); 
