/*--------------------------------*- C++ -*----------------------------------*\
|       ______          _   __           ______                               |
|      / ____/  ___    / | / /          / ____/  ____   ____ _   ____ ___     |
|     / / __   / _ \  /  |/ /  ______  / /_     / __ \ / __ `/  / __ `__ \    |
|    / /_/ /  /  __/ / /|  /  /_____/ / __/    / /_/ // /_/ /  / / / / / /    |
|    \____/   \___/ /_/ |_/          /_/       \____/ \__,_/  /_/ /_/ /_/     |
|    Copyright (C) 2015 - 2022 EPFL                                           |
\*---------------------------------------------------------------------------*/
FoamFile
{
    version     2.0;
    format      ascii;
    class       dictionary;
    object      esfr_core__res;
}
energyGroups 1 ; 

precGroups 8 ; 

expansionFromNominal 5.0e-02 ; // define to which expansion compared to nominal
			       // the XS below correspond

// XSs obtained for the geometry expanded as specified above
// Only cellZones that you want to parametrize must be specified
zones 
( 

innerCore 
{ 
	IV nonuniform List<scalar> 1 (3.920890e-07  );
	D nonuniform List<scalar> 1 (1.391840e-02  );
	nuSigmaEff nonuniform List<scalar> 1 (6.771950e-01  );
	sigmaPow nonuniform List<scalar> 1 (7.72946E-11  );
	scatteringMatrixP0  1  1 ( 
	( 2.972870e+01 )
	);
	sigmaDisapp nonuniform List<scalar> 1 (5.989000e-01  );
	chiPrompt nonuniform List<scalar> 1 (1.000000e+00  );
	chiDelayed nonuniform List<scalar> 1 (1.000000e+00  );
	Beta nonuniform List<scalar> 8 (7.986300e-05 7.429900e-04 2.970670e-04 7.069220e-04 1.509540e-03 6.731730e-04 5.660090e-04 2.763020e-04  );
	lambda nonuniform List<scalar> 8 (1.225290e-02 2.829170e-02 4.252440e-02 1.330420e-01 2.924670e-01 6.664880e-01 1.634780e+00 3.554600e+00  );
} 
outerCore 
{ 
	IV nonuniform List<scalar> 1 (3.692490e-07  );
	D nonuniform List<scalar> 1 (1.417440e-02  );
	nuSigmaEff nonuniform List<scalar> 1 (7.702340e-01  );
	sigmaPow nonuniform List<scalar> 1 (8.76734E-11  );
	scatteringMatrixP0  1  1 ( 
	( 2.931440e+01 )
	);
	sigmaDisapp nonuniform List<scalar> 1 (6.166000e-01  );
	chiPrompt nonuniform List<scalar> 1 (1.000000e+00  );
	chiDelayed nonuniform List<scalar> 1 (1.000000e+00  );
	Beta nonuniform List<scalar> 8 (7.986300e-05 7.429900e-04 2.970670e-04 7.069220e-04 1.509540e-03 6.731730e-04 5.660090e-04 2.763020e-04  );
	lambda nonuniform List<scalar> 8 (1.225290e-02 2.829170e-02 4.252440e-02 1.330420e-01 2.924670e-01 6.664880e-01 1.634780e+00 3.554600e+00  );
} 

); 
