/*--------------------------------*- C++ -*----------------------------------*\
|       ______          _   __           ______                               |
|      / ____/  ___    / | / /          / ____/  ____   ____ _   ____ ___     |
|     / / __   / _ \  /  |/ /  ______  / /_     / __ \ / __ `/  / __ `__ \    |
|    / /_/ /  /  __/ / /|  /  /_____/ / __/    / /_/ // /_/ /  / / / / / /    |
|    \____/   \___/ /_/ |_/          /_/       \____/ \__,_/  /_/ /_/ /_/     |
|    Copyright (C) 2015 - 2022 EPFL                                           |
\*---------------------------------------------------------------------------*/
FoamFile
{
    version     2.0;
    format      ascii;
    class       dictionary;
    object      blockMeshDict;
}
// * * * * * * * * * * * * * * * * * * * * * * * * * * * * * * * * * * * * * //

convertToMeters 0.1;

vertices
(
    (0 0 0) // 0
    (1 0 0)
    (1 1 0)
    (0 1 0)

    (0 0 5) // 4
    (1 0 5)
    (1 1 5)
    (0 1 5)

    (0 0 15) // 8
    (1 0 15)
    (1 1 15)
    (0 1 15)

    (0 0 25) // 12
    (1 0 25)
    (1 1 25)
    (0 1 25) 

    (0 0 30) // 16
    (1 0 30)
    (1 1 30)
    (0 1 30)

    //----//

    (2 0 0) //  20
    (3 0 0)
    (3 1 0)
    (2 1 0)

    (2 0 5) //  24
    (3 0 5)
    (3 1 5)
    (2 1 5)

    (2 0 15) // 28
    (3 0 15)
    (3 1 15)
    (2 1 15)

    (2 0 25) // 32
    (3 0 25)
    (3 1 25)
    (2 1 25)

    (2 0 30) // 36
    (3 0 30)
    (3 1 30)
    (2 1 30)
);

blocks
(
    hex ( 0 1 2 3 4 5 6 7 ) pPipe (1 1 10) simpleGrading (1 1 1)
    hex ( 4 5 6 7 8 9 10 11 ) heater (1 1 20) simpleGrading (1 1 1)
    hex ( 8 9 10 11 12 13 14 15 ) pHX (1 1 20) simpleGrading (1 1 1)
    hex ( 12 13 14 15 16 17 18 19 ) pPipe (1 1 10) simpleGrading (1 1 1)
    
    hex ( 20 21 22 23 24 25 26 27 ) sPipe (1 1 10) simpleGrading (1 1 1)
    hex ( 24 25 26 27 28 29 30 31 ) sPipe (1 1 20) simpleGrading (1 1 1)
    hex ( 28 29 30 31 32 33 34 35 ) sHX (1 1 20) simpleGrading (1 1 1)
    hex ( 32 33 34 35 36 37 38 39 ) sPipe (1 1 10) simpleGrading (1 1 1)
);

edges
(
);

boundary
(
    outletP
    {
        type patch;
        faces
        (
            ( 16 17 18 19 )
        );
    }

    outletS
    {
        type patch;
        faces
        (
            ( 36 37 38 39 )
        );
    }

    walls
    {
        type wall;
        faces
        (
            ( 0 1 5 4 )
            ( 1 2 6 5 )
            ( 2 3 7 6 )
            ( 3 0 4 7 )

            ( 4 5 9 8 )
            ( 5 6 10 9 )
            ( 6 7 11 10 )
            ( 7 4 8 11 )

            ( 8 9 13 12 )
            ( 9 10 14 13 )
            ( 10 11 15 14 )
            ( 11 8 12 15 )

            ( 12 13 17 16 )
            ( 13 14 18 17 )
            ( 14 15 19 18 )
            ( 15 12 16 19)

            ( 20 21 25 24 )
            ( 21 22 26 25 )
            ( 22 23 27 26 )
            ( 23 20 24 27 )

            ( 24 25 29 28 )
            ( 25 26 30 29 )
            ( 26 27 31 30 )
            ( 27 24 28 31 )

            ( 28 29 33 32 )
            ( 29 30 34 33 )
            ( 30 31 35 34 )
            ( 31 28 32 35 )

            ( 32 33 37 36 )
            ( 33 34 38 37 )
            ( 34 35 39 38 )
            ( 35 32 36 39)
        );
    }

    inletP
    {
        type patch;
        faces
        (
            (0 3 2 1)
        );
    }

    inletS
    {
        type patch;
        faces
        (
            (20 23 22 21)
        );
    }
);
